*** Title:

.op
.tran 1.000000e-009 1.000000e-006 start=0.000000e+000
 
.probe v(n_123) v(n_8) v(n_16) v(n_24) v(n_32) v(n_92) v(n_98) v(n_108) v(n_119) v(n_121) 

.options probe=1 

.temp 2.700000e+001

.options tnom=2.700000e+001 apb=1

