*** Title:

.include 'translr.net'
.include 'translr.sim'


.model resn r rsh=1200 tref=27 

.model n.1 nmos level=49 wmax=4e-007 wmin=3e-007 lmax=3e-007 lmin=2.4e-007 acm=2 version=3.2 mobmod=1 capmod=1 nqsmod=0 binunit=2 binflag=1 tox=5.05e-009 toxm=5.05e-009 xj=1e-007 nch=2.37707e+017 vth0=0.854226 lvth0=-6.45009e-008 wvth0=-2.10231e-007 
+ pvth0=4.41876e-014 vfb=-0.62832 k1=-2.02805 lk1=7.38043e-007 wk1=7.52089e-007 pk1=-2.32679e-013 k2=0.614775 lk2=-1.94265e-007 wk2=-1.91157e-007 pk2=5.69478e-014 k3=0 k3b=0 w0=0 nlx=0 dvt0w=0 dvt1w=0 dvt2w=0 dvt0=0 dvt1=0 dvt2=0 u0=-0.00211838 
+ lu0=8.89274e-009 wu0=1.05834e-008 pu0=-3.24809e-015 ua=-1.80963e-009 lua=-1.36076e-016 wua=9.86002e-016 pua=-5.69659e-023 ub=-5.60906e-018 lub=2.44086e-024 wub=2.04376e-024 pub=-6.21377e-031 uc=-7.98777e-010 luc=2.63925e-016 wuc=2.99104e-016 
+ puc=-8.61043e-023 vsat=62081.5 lvsat=0.00544917 wvsat=0.00575808 pvsat=-2.47655e-009 a0=-3.63456 la0=9.7967e-007 wa0=1.25452e-006 pa0=-3.20869e-013 ags=1.23353 lags=-3.29648e-007 wags=-4.2406e-007 pags=1.13294e-013 b0=0 b1=0 keta=-0.0484089 
+ lketa=1.29448e-008 wketa=1.81329e-008 pketa=-4.24662e-015 a1=0 a2=0.99 rdsw=10 prwg=0.2 prwb=-0.3 wr=1 wint=0 lint=0 dwg=0 dwb=0 voff=-0.631153 lvoff=1.35751e-007 wvoff=1.82641e-007 pvoff=-4.64147e-014 nfactor=-7.09715 lnfactor=1.30782e-006 
+ wnfactor=3.32689e-006 pnfactor=-5.7852e-013 eta0=-0.0169668 leta0=6.83101e-009 weta0=7.24918e-010 peta0=-3.43362e-016 etab=0.0087091 letab=-3.26794e-009 wetab=-3.20679e-009 petab=9.99283e-016 pclm=4.2861 lpclm=-8.1164e-007 wpclm=-1.235e-006 
+ ppclm=2.9187e-013 pdiblc1=0 pdiblc2=0.0892914 lpdiblc2=-2.03446e-008 wpdiblc2=-2.32308e-008 ppdiblc2=6.64669e-015 pdiblcb=-0.0847912 lpdiblcb=1.25288e-007 wpdiblcb=1.21978e-007 ppdiblcb=-5.25336e-014 drout=0 pscbe1=7.70752e+008 pscbe2=1e-020 
+ pvag=0.343793 lpvag=-1.03138e-007 wpvag=-1.37517e-007 ppvag=4.12552e-014 delta=0.01 ngate=1e+030 dsub=0 cit=0.0188351 lcit=-4.10067e-009 wcit=-6.79356e-009 pcit=1.51532e-015 cdsc=0 cdscd=6.21983e-005 lcdscd=-1.95483e-011 wcdscd=-2.48793e-011 
+ pcdscd=7.81931e-018 cdscb=0 xpart=0 cgso=3.15e-010 cgdo=3.15e-010 cgbo=1e-013 cgsl=0 cgdl=0 ckappa=0.6 cf=0 clc=1e-007 cle=0.6 dlc=0 dwc=0 vfbcv=-0.720472 noff=1 voffcv=0 acde=0.5 moin=15 wln=1 wl=0 wwn=1 ww=0 wwl=0 lln=1 ll=0 lwn=1 lw=0 lwl=0 
+ llc=0 lwc=0 lwlc=0 wlc=0 wwc=0 wwlc=0 alpha0=0 alpha1=0 beta0=30 af=1.09369 kf=4.13676e-023 rsh=4 js=0.0001 jsw=0 cj=0.00121101 mj=0.398913 pb=0.786344 cjsw=5.3952e-011 mjsw=2 tref=27 prt=0.628378 ute=-1.29285 kt1=-0.227499 kt1l=0 kt2=-0.0211773 
+ ua1=5.21908e-010 ub1=9.72591e-019 uc1=2.64618e-011 at=10798.4 xti=3 tcj=0.00092022 tcjsw=-0.0079958 tpb=0.0022292 tpbsw=-0.0087143 elm=5 xl=0 xw=0 ldif=1e-007 hdif=2.7e-007 lmlt=1 wmlt=1 rd=0 rdc=0 rs=0 rsc=0 php=0.8 cjgate=2e-014 n=1 

.model n.2 nmos level=49 wmax=4e-007 wmin=3e-007 lmax=5e-007 lmin=3e-007 acm=2 version=3.2 mobmod=1 capmod=1 nqsmod=0 binunit=2 binflag=1 tox=5.05e-009 toxm=5.05e-009 xj=1e-007 nch=2.37707e+017 vth0=0.658511 lvth0=-5.78649e-009 wvth0=-9.97789e-008 
+ pvth0=1.1052e-014 vfb=-0.62832 k1=1.28389 lk1=-2.5554e-007 wk1=-3.40358e-007 pk1=9.50552e-014 k2=-0.180045 lk2=4.41805e-008 wk2=6.38065e-008 pk2=-1.95411e-014 k3=0 k3b=0 w0=0 nlx=0 dvt0w=0 dvt1w=0 dvt2w=0 dvt0=0 dvt1=0 dvt2=0 u0=0.0452484 
+ lu0=-5.31731e-009 wu0=-1.04058e-008 pu0=3.04869e-015 ua=1.60828e-009 lua=-1.16145e-015 wua=-9.23964e-016 pua=5.16024e-022 ub=1.58318e-018 lub=2.83191e-025 wub=-1.24136e-025 pub=2.89933e-032 uc=2.53e-010 luc=-5.16077e-017 wuc=-1.03666e-016 
+ puc=3.47266e-023 vsat=177278 lvsat=-0.0291098 wvsat=-0.019286 pvsat=5.03668e-009 a0=1.71663 la0=-6.25687e-007 wa0=-2.02329e-007 pa0=1.16185e-013 ags=0.0913679 lags=1.30017e-008 wags=-3.34104e-008 pags=-3.9005e-015 b0=0 b1=0 keta=-0.0526489 
+ lketa=1.42168e-008 wketa=1.53821e-008 pketa=-3.42138e-015 a1=0 a2=0.99 rdsw=10 prwg=0.2 prwb=-0.3 wr=1 wint=0 lint=0 dwg=0 dwb=0 voff=0.0304226 lvoff=-6.27219e-008 wvoff=-6.12641e-008 pvoff=2.67566e-014 nfactor=5.14963 lnfactor=-2.36622e-006 
+ wnfactor=-9.10643e-007 pnfactor=6.92742e-013 eta0=-0.00434049 leta0=3.04311e-009 weta0=-2.25906e-010 peta0=-5.81149e-017 etab=0.00300863 letab=-1.5578e-009 wetab=-1.4973e-010 petab=8.21645e-017 pclm=-1.71178 lpclm=9.87724e-007 wpclm=1.09391e-006 
+ ppclm=-4.06801e-013 pdiblc1=0 pdiblc2=0.0412922 lpdiblc2=-5.94486e-009 wpdiblc2=4.97274e-009 ppdiblc2=-1.81438e-015 pdiblcb=-0.0437246 lpdiblcb=1.12968e-007 wpdiblcb=5.75599e-008 ppdiblcb=-3.32083e-014 drout=0 pscbe1=7.70752e+008 pscbe2=1e-020 
+ pvag=2.5 lpvag=-7.5e-007 delta=0.01 ngate=1e+030 dsub=0 cit=-0.00945375 lcit=4.38599e-009 wcit=2.70651e-009 pcit=-1.3347e-015 cdsc=0 cdscd=-0.000110879 lcdscd=3.23748e-011 wcdscd=4.43514e-011 pcdscd=-1.29499e-017 cdscb=0 xpart=0 cgso=3.15e-010 
+ cgdo=3.15e-010 cgbo=1e-013 cgsl=0 cgdl=0 ckappa=0.6 cf=0 clc=1e-007 cle=0.6 dlc=0 dwc=0 vfbcv=-0.720472 noff=1 voffcv=0 acde=0.5 moin=15 wln=1 wl=0 wwn=1 ww=0 wwl=0 lln=1 ll=0 lwn=1 lw=0 lwl=0 llc=0 lwc=0 lwlc=0 wlc=0 wwc=0 wwlc=0 alpha0=0 
+ alpha1=0 beta0=30 af=1.09369 kf=4.13676e-023 rsh=4 js=0.0001 jsw=0 cj=0.00121101 mj=0.398913 pb=0.786344 cjsw=5.3952e-011 mjsw=2 tref=27 prt=0.628378 ute=-1.29285 kt1=-0.227499 kt1l=0 kt2=-0.0211773 ua1=5.21908e-010 ub1=9.72591e-019 
+ uc1=2.64618e-011 at=10798.4 xti=3 tcj=0.00092022 tcjsw=-0.0079958 tpb=0.0022292 tpbsw=-0.0087143 elm=5 xl=0 xw=0 ldif=1e-007 hdif=2.7e-007 lmlt=1 wmlt=1 rd=0 rdc=0 rs=0 rsc=0 php=0.8 cjgate=2e-014 n=1 

.model n.3 nmos level=49 wmax=4e-007 wmin=3e-007 lmax=1e-006 lmin=5e-007 acm=2 version=3.2 mobmod=1 capmod=1 nqsmod=0 binunit=2 binflag=1 tox=5.05e-009 toxm=5.05e-009 xj=1e-007 nch=2.37707e+017 vth0=0.481705 lvth0=8.26166e-008 wvth0=-4.62939e-008 
+ pvth0=-1.56905e-014 vfb=-0.62832 k1=0.469168 lk1=1.5182e-007 wk1=-3.60676e-008 pk1=-5.70901e-014 k2=-0.0066459 lk2=-4.25189e-008 wk2=-2.65152e-009 pk2=1.36879e-014 k3=0 k3b=0 w0=0 nlx=0 dvt0w=0 dvt1w=0 dvt2w=0 dvt0=0 dvt1=0 dvt2=0 u0=0.0344002 
+ lu0=1.06798e-010 wu0=-3.80659e-009 pu0=-2.5093e-016 ua=-1.18702e-010 lua=-2.97957e-016 wua=1.25576e-018 pua=5.34139e-023 ub=1.14852e-018 lub=5.00524e-025 wub=5.70785e-026 pub=-6.16137e-032 uc=6.48153e-011 luc=4.24845e-017 wuc=-2.45795e-017 
+ puc=-4.81666e-024 vsat=880942 lvsat=-0.380942 wvsat=0.00921266 pvsat=-9.21267e-009 a0=2.5023 la0=-1.01852e-006 wa0=-2.27904e-007 pa0=1.28973e-013 ags=-0.0773712 lags=9.73712e-008 wags=4.12114e-008 pags=-4.12114e-014 b0=0 b1=0 keta=0.0872715 
+ lketa=-5.57434e-008 wketa=-2.18284e-008 pketa=1.51839e-014 a1=0 a2=0.99 rdsw=10 prwg=0.2 prwb=-0.3 wr=1 wint=0 lint=0 dwg=0 dwb=0 voff=-0.106527 lvoff=5.75279e-009 wvoff=5.75591e-009 pvoff=-6.75336e-015 nfactor=-7.12917 lnfactor=3.77319e-006 
+ wnfactor=2.73875e-006 pnfactor=-1.13196e-012 eta0=0.0132777 leta0=-5.766e-009 weta0=-3.68401e-009 peta0=1.67094e-015 etab=0.000106965 letab=-1.06965e-010 wetab=-1.45986e-011 petab=1.45986e-017 pclm=-13.9359 lpclm=7.0998e-006 wpclm=6.82138e-006 
+ ppclm=-3.27054e-012 pdiblc1=0 pdiblc2=-0.529978 lpdiblc2=2.7969e-007 wpdiblc2=2.08829e-007 ppdiblc2=-1.03742e-013 pdiblcb=2.61779 lpdiblcb=-1.21779e-006 wpdiblcb=-9.51143e-007 ppdiblcb=4.71143e-013 drout=0 pscbe1=7.70752e+008 pscbe2=1e-020 pvag=7 
+ lpvag=-3e-006 wpvag=-2.4e-006 ppvag=1.2e-012 delta=0.01 ngate=1e+030 dsub=0 cit=0.00753132 lcit=-4.10654e-009 wcit=-2.58429e-009 pcit=1.3107e-015 cdsc=0 cdscd=1.15393e-005 lcdscd=-2.88342e-011 wcdscd=-4.61573e-012 pcdscd=1.15337e-017 cdscb=0 
+ xpart=0 cgso=3.15e-010 cgdo=3.15e-010 cgbo=1e-013 cgsl=0 cgdl=0 ckappa=0.6 cf=0 clc=1e-007 cle=0.6 dlc=0 dwc=0 vfbcv=-0.720472 noff=1 voffcv=0 acde=0.5 moin=15 wln=1 wl=0 wwn=1 ww=0 wwl=0 lln=1 ll=0 lwn=1 lw=0 lwl=0 llc=0 lwc=0 lwlc=0 wlc=0 wwc=0 
+ wwlc=0 alpha0=0 alpha1=0 beta0=30 af=1.09369 kf=4.13676e-023 rsh=4 js=0.0001 jsw=0 cj=0.00121101 mj=0.398913 pb=0.786344 cjsw=5.3952e-011 mjsw=2 tref=27 prt=0.628378 ute=-1.29285 kt1=-0.227499 kt1l=0 kt2=-0.0211773 ua1=5.21908e-010 
+ ub1=9.72591e-019 uc1=2.64618e-011 at=10798.4 xti=3 tcj=0.00092022 tcjsw=-0.0079958 tpb=0.0022292 tpbsw=-0.0087143 elm=5 xl=0 xw=0 ldif=1e-007 hdif=2.7e-007 lmlt=1 wmlt=1 rd=0 rdc=0 rs=0 rsc=0 php=0.8 cjgate=2e-014 n=1 

.model n.4 nmos level=49 wmax=4e-007 wmin=3e-007 lmax=1e-005 lmin=1e-006 acm=2 version=3.2 mobmod=1 capmod=1 nqsmod=0 binunit=2 binflag=1 tox=5.05e-009 toxm=5.05e-009 xj=1e-007 nch=2.37707e+017 vth0=0.482813 lvth0=8.1509e-008 wvth0=-5.94361e-008 
+ pvth0=-2.54826e-015 vfb=-0.62832 k1=0.447189 lk1=1.73799e-007 wk1=-1.99638e-008 pk1=-7.31939e-014 k2=0.0218474 lk2=-7.10122e-008 wk2=-1.30074e-008 pk2=2.40438e-014 k3=0 k3b=0 w0=0 nlx=0 dvt0w=0 dvt1w=0 dvt2w=0 dvt0=0 dvt1=0 dvt2=0 u0=0.0327944 
+ lu0=1.71258e-009 wu0=-3.78262e-009 pu0=-2.749e-016 ua=-5.64417e-010 lua=1.47758e-016 wua=1.32915e-016 pua=-7.82451e-023 ub=1.51716e-018 lub=1.31884e-025 wub=-8.24053e-026 pub=7.78701e-032 uc=4.30165e-011 luc=6.42833e-017 wuc=-2.04235e-017 
+ puc=-8.9727e-024 vsat=500000 a0=0.756867 la0=7.26908e-007 wa0=-1.25702e-007 pa0=2.67708e-014 ags=0.02 b0=0 b1=0 keta=0.0120957 lketa=1.94324e-008 wketa=-7.89781e-010 pketa=-5.85476e-015 a1=0 a2=0.99 rdsw=10 prwg=0.2 prwb=-0.3 wr=1 wint=0 lint=0 
+ dwg=0 dwb=0 voff=-0.166132 lvoff=6.53577e-008 wvoff=2.06721e-008 pvoff=-2.16695e-014 nfactor=-0.686862 lnfactor=-2.66912e-006 wnfactor=2.45367e-007 pnfactor=1.36143e-012 eta0=0.00112498 leta0=6.38674e-009 weta0=-2.32878e-010 peta0=-1.7802e-015 
+ etab=0 pclm=6.31513 lpclm=-1.31513e-005 wpclm=-3.94537e-007 ppclm=3.94538e-012 pdiblc1=0 pdiblc2=0.138921 lpdiblc2=-3.89209e-007 wpdiblc2=-1.16763e-008 ppdiblc2=1.16763e-013 pdiblcb=0.0666665 lpdiblcb=1.33333e-006 wpdiblcb=5.33333e-008 
+ ppdiblcb=-5.33333e-013 drout=0 pscbe1=7.70752e+008 pscbe2=1e-020 pvag=-0.444445 lpvag=4.44444e-006 wpvag=1.33333e-007 ppvag=-1.33333e-012 delta=0.01 ngate=1e+030 dsub=0 cit=-2.09521e-005 lcit=3.44572e-009 wcit=1.94209e-011 pcit=-1.29301e-015 
+ cdsc=0 cdscd=7.52641e-005 lcdscd=-9.2559e-011 wcdscd=-2.27714e-011 pcdscd=2.96893e-017 cdscb=0 xpart=0 cgso=3.15e-010 cgdo=3.15e-010 cgbo=1e-013 cgsl=0 cgdl=0 ckappa=0.6 cf=0 clc=1e-007 cle=0.6 dlc=0 dwc=0 vfbcv=-0.720472 noff=1 voffcv=0 acde=0.5 
+ moin=15 wln=1 wl=0 wwn=1 ww=0 wwl=0 lln=1 ll=0 lwn=1 lw=0 lwl=0 llc=0 lwc=0 lwlc=0 wlc=0 wwc=0 wwlc=0 alpha0=0 alpha1=0 beta0=30 af=1.09369 kf=4.13676e-023 rsh=4 js=0.0001 jsw=0 cj=0.00121101 mj=0.398913 pb=0.786344 cjsw=5.3952e-011 mjsw=2 tref=27 
+ prt=0.628378 ute=-1.29285 kt1=-0.227499 kt1l=0 kt2=-0.0211773 ua1=5.21908e-010 ub1=9.72591e-019 uc1=2.64618e-011 at=10798.4 xti=3 tcj=0.00092022 tcjsw=-0.0079958 tpb=0.0022292 tpbsw=-0.0087143 elm=5 xl=0 xw=0 ldif=1e-007 hdif=2.7e-007 lmlt=1 
+ wmlt=1 rd=0 rdc=0 rs=0 rsc=0 php=0.8 cjgate=2e-014 n=1 

.model n.5 nmos level=49 wmax=4e-007 wmin=3e-007 lmax=2.01e-005 lmin=1e-005 acm=2 version=3.2 mobmod=1 capmod=1 nqsmod=0 binunit=2 binflag=1 tox=5.05e-009 toxm=5.05e-009 xj=1e-007 nch=2.37707e+017 vth0=0.490964 wvth0=-5.96909e-008 vfb=-0.62832 
+ k1=0.464569 wk1=-2.72832e-008 k2=0.0147462 wk2=-1.0603e-008 k3=0 k3b=0 w0=0 nlx=0 dvt0w=0 dvt1w=0 dvt2w=0 dvt0=0 dvt1=0 dvt2=0 u0=0.0329657 wu0=-3.8101e-009 ua=-5.49641e-010 wua=1.2509e-016 ub=1.53035e-018 wub=-7.46183e-026 uc=4.94448e-011 
+ wuc=-2.13208e-017 vsat=500000 a0=0.829557 wa0=-1.23025e-007 ags=0.02 b0=0 b1=0 keta=0.014039 wketa=-1.37526e-009 a1=0 a2=0.99 rdsw=10 prwg=0.2 prwb=-0.3 wr=1 wint=0 lint=0 dwg=0 dwb=0 voff=-0.159596 wvoff=1.85051e-008 nfactor=-0.953775 
+ wnfactor=3.8151e-007 eta0=0.00176365 weta0=-4.10897e-010 etab=0 pclm=5 pdiblc1=0 pdiblc2=0.1 pdiblcb=0.2 drout=0 pscbe1=7.70752e+008 pscbe2=1e-020 pvag=0 delta=0.01 ngate=1e+030 dsub=0 cit=0.000323621 wcit=-1.0988e-010 cdsc=0 cdscd=6.60082e-005 
+ wcdscd=-1.98025e-011 cdscb=0 xpart=0 cgso=3.15e-010 cgdo=3.15e-010 cgbo=1e-013 cgsl=0 cgdl=0 ckappa=0.6 cf=0 clc=1e-007 cle=0.6 dlc=0 dwc=0 vfbcv=-0.720472 noff=1 voffcv=0 acde=0.5 moin=15 wln=1 wl=0 wwn=1 ww=0 wwl=0 lln=1 ll=0 lwn=1 lw=0 lwl=0 
+ llc=0 lwc=0 lwlc=0 wlc=0 wwc=0 wwlc=0 alpha0=0 alpha1=0 beta0=30 af=1.09369 kf=4.13676e-023 rsh=4 js=0.0001 jsw=0 cj=0.00121101 mj=0.398913 pb=0.786344 cjsw=5.3952e-011 mjsw=2 tref=27 prt=0.628378 ute=-1.29285 kt1=-0.227499 kt1l=0 kt2=-0.0211773 
+ ua1=5.21908e-010 ub1=9.72591e-019 uc1=2.64618e-011 at=10798.4 xti=3 tcj=0.00092022 tcjsw=-0.0079958 tpb=0.0022292 tpbsw=-0.0087143 elm=5 xl=0 xw=0 ldif=1e-007 hdif=2.7e-007 lmlt=1 wmlt=1 rd=0 rdc=0 rs=0 rsc=0 php=0.8 cjgate=2e-014 n=1 

.model n.6 nmos level=49 wmax=1e-006 wmin=4e-007 lmax=3e-007 lmin=2.4e-007 acm=2 version=3.2 mobmod=1 capmod=1 nqsmod=0 binunit=2 binflag=1 tox=5.05e-009 toxm=5.05e-009 xj=1e-007 nch=2.37707e+017 vth0=0.32427 lvth0=6.90065e-008 wvth0=1.75173e-009 
+ pvth0=-9.2154e-015 vfb=-0.62832 k1=1.09162 lk1=-1.09725e-007 wk1=-4.95781e-007 pk1=1.06428e-013 k2=-0.157401 lk2=1.08138e-008 wk2=1.17714e-007 pk2=-2.50839e-014 k3=0 k3b=0 w0=0 nlx=0 dvt0w=0 dvt1w=0 dvt2w=0 dvt0=0 dvt1=0 dvt2=0 u0=0.0359344 
+ lu0=1.95269e-010 wu0=-4.63766e-009 pu0=2.30898e-016 ua=-1.27858e-009 lua=1.8566e-016 wua=7.73584e-016 pua=-1.8566e-022 ub=3.45618e-018 lub=-1.40065e-025 wub=-1.58233e-024 pub=4.10995e-031 uc=3.0603e-010 luc=-3.1166e-017 wuc=-1.42819e-016 
+ puc=3.19322e-023 vsat=79350.4 lvsat=-0.000565897 wvsat=-0.00114949 pvsat=-7.0525e-011 a0=0.607702 la0=-2.24457e-007 wa0=-4.42386e-007 pa0=1.60782e-013 ags=-0.111794 lags=3.80305e-008 wags=1.14071e-007 pags=-3.3777e-014 b0=0 b1=0 keta=0.0158994 
+ lketa=-9.44393e-009 wketa=-7.59041e-009 pketa=4.70886e-015 a1=0 a2=0.99 rdsw=10 prwg=0.2 prwb=-0.3 wr=1 wint=0 lint=0 dwg=0 dwb=0 voff=0.214534 lvoff=-9.2244e-008 wvoff=-1.55634e-007 pvoff=4.47832e-014 nfactor=-2.46119 lnfactor=6.31503e-007 
+ wnfactor=1.47251e-006 pnfactor=-3.07994e-013 eta0=0.00388266 leta0=4.14113e-010 weta0=-7.61488e-009 peta0=2.2234e-015 etab=0.00109705 letab=-9.73671e-010 wetab=-1.61973e-010 petab=8.1576e-017 pclm=-0.38818 lpclm=4.36774e-007 wpclm=6.34716e-007 
+ ppclm=-2.07496e-013 pdiblc1=0 pdiblc2=-0.0749098 lpdiblc2=2.6653e-008 wpdiblc2=4.24497e-008 ppdiblc2=-1.21523e-014 pdiblcb=0.391929 lpdiblcb=-1.33605e-007 wpdiblcb=-6.87101e-008 ppdiblcb=5.10236e-014 drout=0 pscbe1=7.70752e+008 pscbe2=1e-020 
+ pvag=-0.666239 lpvag=1.99872e-007 wpvag=2.66496e-007 ppvag=-7.99488e-014 delta=0.01 ngate=1e+030 dsub=0 cit=0.00446295 lcit=-8.27478e-010 wcit=-1.0447e-009 pcit=2.06043e-016 cdsc=0 cdscd=-9.09851e-005 lcdscd=2.72955e-011 wcdscd=3.6394e-011 
+ pcdscd=-1.09182e-017 cdscb=0 xpart=0 cgso=3.15e-010 cgdo=3.15e-010 cgbo=1e-013 cgsl=0 cgdl=0 ckappa=0.6 cf=0 clc=1e-007 cle=0.6 dlc=0 dwc=0 vfbcv=-0.720472 noff=1 voffcv=0 acde=0.5 moin=15 wln=1 wl=0 wwn=1 ww=0 wwl=0 lln=1 ll=0 lwn=1 lw=0 lwl=0 
+ llc=0 lwc=0 lwlc=0 wlc=0 wwc=0 wwlc=0 alpha0=0 alpha1=0 beta0=30 af=1.09369 kf=4.13676e-023 rsh=4 js=0.0001 jsw=0 cj=0.00121101 mj=0.398913 pb=0.786344 cjsw=5.3952e-011 mjsw=2 tref=27 prt=0.628378 ute=-1.29285 kt1=-0.227499 kt1l=0 kt2=-0.0211773 
+ ua1=5.21908e-010 ub1=9.72591e-019 uc1=2.64618e-011 at=10798.4 xti=3 tcj=0.00092022 tcjsw=-0.0079958 tpb=0.0022292 tpbsw=-0.0087143 elm=5 xl=0 xw=0 ldif=1e-007 hdif=2.7e-007 lmlt=1 wmlt=1 rd=0 rdc=0 rs=0 rsc=0 php=0.8 cjgate=2e-014 n=1 

.model n.7 nmos level=49 wmax=1e-006 wmin=4e-007 lmax=5e-007 lmin=3e-007 acm=2 version=3.2 mobmod=1 capmod=1 nqsmod=0 binunit=2 binflag=1 tox=5.05e-009 toxm=5.05e-009 xj=1e-007 nch=2.37707e+017 vth0=0.482646 lvth0=2.14937e-008 wvth0=-2.94328e-008 
+ pvth0=1.39952e-016 vfb=-0.62832 k1=0.197629 lk1=1.58473e-007 wk1=9.4145e-008 pk1=-7.05499e-014 k2=0.104084 lk2=-6.76317e-008 wk2=-4.9845e-008 pk2=2.51838e-014 k3=0 k3b=0 w0=0 nlx=0 dvt0w=0 dvt1w=0 dvt2w=0 dvt0=0 dvt1=0 dvt2=0 u0=0.0327943 
+ lu0=1.13729e-009 wu0=-5.42418e-009 pu0=4.66854e-016 ua=-3.73913e-010 lua=-8.57412e-017 wua=-1.31087e-016 pua=8.57412e-023 ub=1.33699e-018 lub=4.95692e-025 wub=-2.56585e-026 pub=-5.60069e-032 uc=6.71612e-011 luc=4.04948e-017 wuc=-2.93306e-017 
+ puc=-2.1144e-024 vsat=123826 lvsat=-0.0139086 wvsat=0.00209474 pvsat=-1.0438e-009 a0=1.80278 la0=-5.82981e-007 wa0=-2.36791e-007 pa0=9.91029e-014 ags=-0.0153352 lags=9.09292e-009 wags=9.27086e-009 pags=-2.337e-015 b0=0 b1=0 keta=0.0232393 
+ lketa=-1.16459e-008 wketa=-1.49732e-008 pketa=6.92369e-015 a1=0 a2=0.99 rdsw=10 prwg=0.2 prwb=-0.3 wr=1 wint=0 lint=0 dwg=0 dwb=0 voff=-0.207465 lvoff=3.43556e-008 wvoff=3.38909e-008 pvoff=-1.20744e-014 nfactor=-2.13955 lnfactor=5.35011e-007 
+ wnfactor=2.00503e-006 pnfactor=-4.67749e-013 eta0=1.42008e-005 leta0=1.57465e-009 weta0=-1.96778e-009 peta0=5.29267e-016 etab=0.000400752 letab=-7.64781e-010 wetab=8.93422e-010 petab=-2.35042e-016 pclm=0.6598 lpclm=1.2238e-007 wpclm=1.45274e-007 
+ ppclm=-6.06629e-014 pdiblc1=0 pdiblc2=-0.0136541 lpdiblc2=8.27624e-009 wpdiblc2=2.69513e-008 ppdiblc2=-7.50281e-015 pdiblcb=0.0827491 lpdiblcb=-4.08512e-008 wpdiblcb=6.97036e-009 ppdiblcb=2.83195e-014 drout=0 pscbe1=7.70752e+008 pscbe2=1e-020 
+ pvag=1.06228 lpvag=-3.18683e-007 wpvag=5.7509e-007 ppvag=-1.72527e-013 delta=0.01 ngate=1e+030 dsub=0 cit=0.00455528 lcit=-8.55175e-010 wcit=-2.8971e-009 pcit=7.61762e-016 cdsc=0 cdscd=0 cdscb=0 xpart=0 cgso=3.15e-010 cgdo=3.15e-010 cgbo=1e-013 
+ cgsl=0 cgdl=0 ckappa=0.6 cf=0 clc=1e-007 cle=0.6 dlc=0 dwc=0 vfbcv=-0.720472 noff=1 voffcv=0 acde=0.5 moin=15 wln=1 wl=0 wwn=1 ww=0 wwl=0 lln=1 ll=0 lwn=1 lw=0 lwl=0 llc=0 lwc=0 lwlc=0 wlc=0 wwc=0 wwlc=0 alpha0=0 alpha1=0 beta0=30 af=1.09369 
+ kf=4.13676e-023 rsh=4 js=0.0001 jsw=0 cj=0.00121101 mj=0.398913 pb=0.786344 cjsw=5.3952e-011 mjsw=2 tref=27 prt=0.628378 ute=-1.29285 kt1=-0.227499 kt1l=0 kt2=-0.0211773 ua1=5.21908e-010 ub1=9.72591e-019 uc1=2.64618e-011 at=10798.4 xti=3 
+ tcj=0.00092022 tcjsw=-0.0079958 tpb=0.0022292 tpbsw=-0.0087143 elm=5 xl=0 xw=0 ldif=1e-007 hdif=2.7e-007 lmlt=1 wmlt=1 rd=0 rdc=0 rs=0 rsc=0 php=0.8 cjgate=2e-014 n=1 

.model n.8 nmos level=49 wmax=1e-006 wmin=4e-007 lmax=1e-006 lmin=5e-007 acm=2 version=3.2 mobmod=1 capmod=1 nqsmod=0 binunit=2 binflag=1 tox=5.05e-009 toxm=5.05e-009 xj=1e-007 nch=2.37707e+017 vth0=0.446967 lvth0=3.93335e-008 wvth0=-3.23985e-008 
+ pvth0=1.6228e-015 vfb=-0.62832 k1=0.343737 lk1=8.54195e-008 wk1=1.41051e-008 pk1=-3.053e-014 k2=0.0348105 lk2=-3.2995e-008 wk2=-1.92341e-008 pk2=9.87834e-015 k3=0 k3b=0 w0=0 nlx=0 dvt0w=0 dvt1w=0 dvt2w=0 dvt0=0 dvt1=0 dvt2=0 u0=0.0277163 
+ lu0=3.67627e-009 wu0=-1.13303e-009 pu0=-1.67872e-015 ua=-7.64625e-010 lua=1.09615e-016 wua=2.59625e-016 pua=-1.09615e-022 ub=1.54347e-018 lub=3.92451e-025 wub=-1.00903e-025 pub=-1.83848e-032 uc=8.25081e-012 luc=6.995e-017 wuc=-1.95374e-018 
+ puc=-1.58028e-023 vsat=903991 lvsat=-0.403991 pvsat=7.15104e-012 a0=1.55942 la0=-4.61301e-007 wa0=1.49247e-007 pa0=-9.39156e-014 ags=-0.096184 lags=4.95173e-008 wags=4.87365e-008 pags=-2.20698e-014 b0=0 b1=0 keta=0.0103598 lketa=-5.20614e-009 
+ wketa=8.93625e-009 pketa=-5.03102e-015 a1=0 a2=0.99 rdsw=10 prwg=0.2 prwb=-0.3 wr=1 wint=0 lint=0 dwg=0 dwb=0 voff=-0.160783 lvoff=1.10146e-008 wvoff=2.74583e-008 pvoff=-8.85806e-015 nfactor=0.188195 lnfactor=-6.28864e-007 wnfactor=-1.88195e-007 
+ pnfactor=6.28864e-013 eta0=-0.00499448 leta0=4.07899e-009 weta0=3.62487e-009 peta0=-2.26706e-015 etab=0.000721124 letab=-9.24967e-010 wetab=-2.60262e-010 petab=3.41799e-016 pclm=13.0408 lpclm=-6.06813e-006 wpclm=-3.96933e-006 ppclm=1.99664e-012 
+ pdiblc1=0 pdiblc2=0.313864 lpdiblc2=-1.55483e-007 wpdiblc2=-1.28708e-007 ppdiblc2=7.03269e-014 pdiblcb=0.398953 lpdiblcb=-1.98953e-007 wpdiblcb=-6.36093e-008 ppdiblcb=6.36093e-014 drout=0 pscbe1=7.70752e+008 pscbe2=1e-020 pvag=-1.75824 
+ lpvag=1.09158e-006 wpvag=1.1033e-006 ppvag=-4.36631e-013 delta=0.01 ngate=1e+030 dsub=0 cit=-0.000532847 lcit=1.68889e-009 wcit=6.41373e-010 pcit=-1.00747e-015 cdsc=0 cdscd=0.000126572 lcdscd=-6.32861e-011 wcdscd=-5.06289e-011 pcdscd=2.53145e-017 
+ cdscb=0 xpart=0 cgso=3.15e-010 cgdo=3.15e-010 cgbo=1e-013 cgsl=0 cgdl=0 ckappa=0.6 cf=0 clc=1e-007 cle=0.6 dlc=0 dwc=0 vfbcv=-0.720472 noff=1 voffcv=0 acde=0.5 moin=15 wln=1 wl=0 wwn=1 ww=0 wwl=0 lln=1 ll=0 lwn=1 lw=0 lwl=0 llc=0 lwc=0 lwlc=0 
+ wlc=0 wwc=0 wwlc=0 alpha0=0 alpha1=0 beta0=30 af=1.09369 kf=4.13676e-023 rsh=4 js=0.0001 jsw=0 cj=0.00121101 mj=0.398913 pb=0.786344 cjsw=5.3952e-011 mjsw=2 tref=27 prt=0.628378 ute=-1.29285 kt1=-0.227499 kt1l=0 kt2=-0.0211773 ua1=5.21908e-010 
+ ub1=9.72591e-019 uc1=2.64618e-011 at=10798.4 xti=3 tcj=0.00092022 tcjsw=-0.0079958 tpb=0.0022292 tpbsw=-0.0087143 elm=5 xl=0 xw=0 ldif=1e-007 hdif=2.7e-007 lmlt=1 wmlt=1 rd=0 rdc=0 rs=0 rsc=0 php=0.8 cjgate=2e-014 n=1 

.model n.9 nmos level=49 wmax=1e-006 wmin=4e-007 lmax=1e-005 lmin=1e-006 acm=2 version=3.2 mobmod=1 capmod=1 nqsmod=0 binunit=2 binflag=1 tox=5.05e-009 toxm=5.05e-009 xj=1e-007 nch=2.37707e+017 vth0=0.419634 lvth0=6.66658e-008 wvth0=-3.41647e-008 
+ pvth0=3.38903e-015 vfb=-0.62832 k1=0.43538 lk1=-6.22404e-009 wk1=-1.52403e-008 pk1=-1.18452e-015 k2=0.00643675 lk2=-4.62125e-009 wk2=-6.84313e-009 pk2=-2.51259e-015 k3=0 k3b=0 w0=0 nlx=0 dvt0w=0 dvt1w=0 dvt2w=0 dvt0=0 dvt1=0 dvt2=0 u0=0.0296864 
+ lu0=1.70622e-009 wu0=-2.53939e-009 pu0=-2.72356e-016 ua=-6.86868e-010 lua=3.18578e-017 wua=1.81895e-016 pua=-3.1885e-023 ub=1.7007e-018 lub=2.35223e-025 wub=-1.55822e-025 pub=3.65347e-032 uc=3.57503e-011 luc=4.24505e-017 wuc=-1.7517e-017 
+ puc=-2.39563e-025 vsat=500000 a0=0.559608 la0=5.38512e-007 wa0=-4.67985e-008 pa0=1.02129e-013 ags=0.0274074 lags=-7.40741e-008 wags=-2.96296e-009 pags=2.96296e-014 b0=0 b1=0 keta=0.0111648 lketa=-6.01112e-009 wketa=-4.17412e-010 pketa=4.32264e-015 
+ a1=0 a2=0.99 rdsw=10 prwg=0.2 prwb=-0.3 wr=1 wint=0 lint=0 dwg=0 dwb=0 voff=-0.149749 lvoff=-1.87025e-011 wvoff=1.41192e-008 pvoff=4.48104e-015 nfactor=0.0489631 lnfactor=-4.89632e-007 wnfactor=-4.89632e-008 pnfactor=4.89632e-013 eta0=0.000208109 
+ leta0=-1.1236e-009 weta0=1.3387e-010 peta0=1.22394e-015 etab=2.26493e-005 letab=-2.26493e-010 wetab=-9.05969e-012 petab=9.0597e-017 pclm=4.78081 lpclm=2.19188e-006 wpclm=2.19188e-007 ppclm=-2.19188e-012 pdiblc1=0 pdiblc2=0.0935132 
+ lpdiblc2=6.48681e-008 wpdiblc2=6.4868e-009 ppdiblc2=-6.48681e-014 pdiblcb=0.2 drout=0 pscbe1=7.70752e+008 pscbe2=1e-020 pvag=0.074074 lpvag=-7.40741e-007 wpvag=-7.4074e-008 ppvag=7.40741e-013 delta=0.01 ngate=1e+030 dsub=0 cit=0.00164245 
+ lcit=-4.86407e-010 wcit=-6.45939e-010 pcit=2.79838e-016 cdsc=0 cdscd=-1.92555e-005 lcdscd=8.25417e-011 wcdscd=1.50365e-011 pcdscd=-4.03509e-017 cdscb=0 xpart=0 cgso=3.15e-010 cgdo=3.15e-010 cgbo=1e-013 cgsl=0 cgdl=0 ckappa=0.6 cf=0 clc=1e-007 
+ cle=0.6 dlc=0 dwc=0 vfbcv=-0.720472 noff=1 voffcv=0 acde=0.5 moin=15 wln=1 wl=0 wwn=1 ww=0 wwl=0 lln=1 ll=0 lwn=1 lw=0 lwl=0 llc=0 lwc=0 lwlc=0 wlc=0 wwc=0 wwlc=0 alpha0=0 alpha1=0 beta0=30 af=1.09369 kf=4.13676e-023 rsh=4 js=0.0001 jsw=0 
+ cj=0.00121101 mj=0.398913 pb=0.786344 cjsw=5.3952e-011 mjsw=2 tref=27 prt=0.628378 ute=-1.29285 kt1=-0.227499 kt1l=0 kt2=-0.0211773 ua1=5.21908e-010 ub1=9.72591e-019 uc1=2.64618e-011 at=10798.4 xti=3 tcj=0.00092022 tcjsw=-0.0079958 tpb=0.0022292 
+ tpbsw=-0.0087143 elm=5 xl=0 xw=0 ldif=1e-007 hdif=2.7e-007 lmlt=1 wmlt=1 rd=0 rdc=0 rs=0 rsc=0 php=0.8 cjgate=2e-014 n=1 

.model n.10 nmos level=49 wmax=1e-006 wmin=4e-007 lmax=2.01e-005 lmin=1e-005 acm=2 version=3.2 mobmod=1 capmod=1 nqsmod=0 binunit=2 binflag=1 tox=5.05e-009 toxm=5.05e-009 xj=1e-007 nch=2.37707e+017 vth0=0.426301 wvth0=-3.38258e-008 vfb=-0.62832 
+ k1=0.434758 wk1=-1.53588e-008 k2=0.00597463 wk2=-7.09439e-009 k3=0 k3b=0 w0=0 nlx=0 dvt0w=0 dvt1w=0 dvt2w=0 dvt0=0 dvt1=0 dvt2=0 u0=0.029857 wu0=-2.56663e-009 ua=-6.83682e-010 wua=1.78707e-016 ub=1.72422e-018 wub=-1.52169e-025 uc=3.99954e-011 
+ wuc=-1.7541e-017 vsat=500000 a0=0.613459 wa0=-3.65855e-008 ags=0.02 b0=0 b1=0 keta=0.0105637 wketa=1.48515e-011 a1=0 a2=0.99 rdsw=10 prwg=0.2 prwb=-0.3 wr=1 wint=0 lint=0 dwg=0 dwb=0 voff=-0.149751 wvoff=1.45673e-008 nfactor=0 eta0=9.57488e-005 
+ weta0=2.56264e-010 etab=0 pclm=5 pdiblc1=0 pdiblc2=0.1 pdiblcb=0.2 drout=0 pscbe1=7.70752e+008 pscbe2=1e-020 pvag=0 delta=0.01 ngate=1e+030 dsub=0 cit=0.00159381 wcit=-6.17955e-010 cdsc=0 cdscd=-1.10014e-005 wcdscd=1.10014e-011 cdscb=0 xpart=0 
+ cgso=3.15e-010 cgdo=3.15e-010 cgbo=1e-013 cgsl=0 cgdl=0 ckappa=0.6 cf=0 clc=1e-007 cle=0.6 dlc=0 dwc=0 vfbcv=-0.720472 noff=1 voffcv=0 acde=0.5 moin=15 wln=1 wl=0 wwn=1 ww=0 wwl=0 lln=1 ll=0 lwn=1 lw=0 lwl=0 llc=0 lwc=0 lwlc=0 wlc=0 wwc=0 wwlc=0 
+ alpha0=0 alpha1=0 beta0=30 af=1.09369 kf=4.13676e-023 rsh=4 js=0.0001 jsw=0 cj=0.00121101 mj=0.398913 pb=0.786344 cjsw=5.3952e-011 mjsw=2 tref=27 prt=0.628378 ute=-1.29285 kt1=-0.227499 kt1l=0 kt2=-0.0211773 ua1=5.21908e-010 ub1=9.72591e-019 
+ uc1=2.64618e-011 at=10798.4 xti=3 tcj=0.00092022 tcjsw=-0.0079958 tpb=0.0022292 tpbsw=-0.0087143 elm=5 xl=0 xw=0 ldif=1e-007 hdif=2.7e-007 lmlt=1 wmlt=1 rd=0 rdc=0 rs=0 rsc=0 php=0.8 cjgate=2e-014 n=1 

.model n.11 nmos level=49 wmax=1e-005 wmin=1e-006 lmax=3e-007 lmin=2.4e-007 acm=2 version=3.2 mobmod=1 capmod=1 nqsmod=0 binunit=2 binflag=1 tox=5.05e-009 toxm=5.05e-009 xj=1e-007 nch=2.37707e+017 vth0=0.546928 lvth0=-1.13902e-009 
+ wvth0=-2.20907e-007 pvth0=6.09302e-014 vfb=-0.62832 k1=0.756508 lk1=-4.73433e-008 wk1=-1.60665e-007 pk1=4.40462e-014 k2=-0.020226 lk2=-1.79222e-008 wk2=-1.9461e-008 pk2=3.65212e-015 k3=0 k3b=0 w0=0 nlx=0 dvt0w=0 dvt1w=0 dvt2w=0 dvt0=0 dvt1=0 
+ dvt2=0 u0=-0.0757849 lu0=3.52419e-008 wu0=1.07082e-007 pu0=-3.48157e-014 ua=-1.0168e-008 lua=2.8989e-015 wua=9.663e-015 pua=-2.8989e-021 ub=-3.00248e-019 lub=1.15184e-024 wub=2.1741e-024 pub=-8.8091e-031 uc=-5.23219e-010 luc=2.28412e-016 
+ wuc=6.8643e-016 puc=-2.27646e-022 vsat=87413.2 lvsat=-0.00177043 wvsat=-0.00921225 pvsat=1.13401e-009 a0=0.657188 la0=-1.68655e-007 wa0=-4.91872e-007 pa0=1.04979e-013 ags=0.0961399 lags=-2.41732e-008 wags=-9.38628e-008 pags=2.84267e-014 b0=0 b1=0 
+ keta=-0.0315879 lketa=7.11274e-009 wketa=3.98969e-008 pketa=-1.18478e-014 a1=0 a2=0.99 rdsw=10 prwg=1.97778 lprwg=-5.33333e-007 wprwg=-1.77778e-006 pprwg=5.33333e-013 prwb=-2.96667 lprwb=8e-007 wprwb=2.66667e-006 pprwb=-8e-013 wr=1 wint=0 lint=0 
+ dwg=0 dwb=0 voff=-0.0660015 lvoff=-7.27479e-009 wvoff=1.24901e-007 pvoff=-4.01861e-014 nfactor=3.11512 lnfactor=-6.70648e-007 wnfactor=-4.1038e-006 pnfactor=9.94157e-013 eta0=-0.0163923 leta0=6.05196e-009 weta0=1.26601e-008 peta0=-3.41445e-015 
+ etab=0.00127062 letab=-1.12312e-009 wetab=-3.35546e-010 petab=2.31028e-016 pclm=0.626383 lpclm=1.93275e-007 wpclm=-3.79847e-007 ppclm=3.60036e-014 pdiblc1=0 pdiblc2=0.0122803 lpdiblc2=3.67442e-009 wpdiblc2=-4.47404e-008 ppdiblc2=1.08262e-014 
+ pdiblcb=-0.381154 lpdiblcb=1.20929e-007 wpdiblcb=7.04373e-007 ppdiblcb=-2.0351e-013 drout=0 pscbe1=7.70752e+008 pscbe2=1e-020 pvag=0.441962 lpvag=4.36119e-008 wpvag=-8.41705e-007 ppvag=7.63112e-014 delta=0.01 ngate=1e+030 dsub=0 cit=-0.00359522 
+ lcit=1.16201e-009 wcit=7.01347e-009 pcit=-1.78344e-015 cdsc=0 cdscd=-0.000177097 lcdscd=5.31291e-011 wcdscd=1.22506e-010 pcdscd=-3.67518e-017 cdscb=0 xpart=0 cgso=3.15e-010 cgdo=3.15e-010 cgbo=1e-013 cgsl=0 cgdl=0 ckappa=0.6 cf=0 clc=1e-007 
+ cle=0.6 dlc=0 dwc=0 vfbcv=-0.720472 noff=1 voffcv=0 acde=0.5 moin=15 wln=1 wl=0 wwn=1 ww=0 wwl=0 lln=1 ll=0 lwn=1 lw=0 lwl=0 llc=0 lwc=0 lwlc=0 wlc=0 wwc=0 wwlc=0 alpha0=0 alpha1=0 beta0=30 af=1.09369 kf=4.13676e-023 rsh=4 js=0.0001 jsw=0 
+ cj=0.00121101 mj=0.398913 pb=0.786344 cjsw=5.3952e-011 mjsw=2 tref=27 prt=0.628378 ute=-1.29285 kt1=-0.227499 kt1l=0 kt2=-0.0211773 ua1=5.21908e-010 ub1=9.72591e-019 uc1=2.64618e-011 at=10798.4 xti=3 tcj=0.00092022 tcjsw=-0.0079958 tpb=0.0022292 
+ tpbsw=-0.0087143 elm=5 xl=0 xw=0 ldif=1e-007 hdif=2.7e-007 lmlt=1 wmlt=1 rd=0 rdc=0 rs=0 rsc=0 php=0.8 cjgate=2e-014 n=1 

.model n.12 nmos level=49 wmax=1e-005 wmin=1e-006 lmax=5e-007 lmin=3e-007 acm=2 version=3.2 mobmod=1 capmod=1 nqsmod=0 binunit=2 binflag=1 tox=5.05e-009 toxm=5.05e-009 xj=1e-007 nch=2.37707e+017 vth0=0.450123 lvth0=2.79026e-008 wvth0=3.09035e-009 
+ pvth0=-6.26889e-015 vfb=-0.62832 k1=0.392732 lk1=6.17893e-008 wk1=-1.00958e-007 pk1=2.61339e-014 k2=0.0514787 lk2=-3.94337e-008 wk2=2.76023e-009 pk2=-3.01426e-015 k3=0 k3b=0 w0=0 nlx=0 dvt0w=0 dvt1w=0 dvt2w=0 dvt0=0 dvt1=0 dvt2=0 u0=0.0298893 
+ lu0=3.53959e-009 wu0=-2.51919e-009 pu0=-1.93545e-015 ua=-5.05e-010 ub=1.73896e-018 lub=5.40078e-025 wub=-4.27624e-025 pub=-1.00393e-031 uc=1.14528e-010 luc=3.70879e-017 wuc=-7.66976e-017 puc=1.29249e-024 vsat=143933 lvsat=-0.0187264 
+ wvsat=-0.0180124 pvsat=3.77404e-009 a0=1.30902 la0=-3.64204e-007 wa0=2.5697e-007 pa0=-1.19674e-013 ags=-0.080968 lags=2.89592e-008 wags=7.49037e-008 pags=-2.22032e-014 b0=0 b1=0 keta=-0.00622539 lketa=-4.96004e-010 wketa=1.44915e-008 
+ pketa=-4.22619e-015 a1=0 a2=0.99 rdsw=10 prwg=0.2 prwb=-0.3 wr=1 wint=0 lint=0 dwg=0 dwb=0 voff=-0.100428 lvoff=3.05307e-009 wvoff=-7.31461e-008 pvoff=1.92282e-014 nfactor=0.377992 lnfactor=1.50492e-007 wnfactor=-5.12514e-007 
+ pnfactor=-8.32304e-014 eta0=-0.00484619 leta0=2.58813e-009 weta0=2.8926e-009 peta0=-4.84211e-016 etab=0.00206613 letab=-1.36177e-009 wetab=-7.71954e-010 petab=3.6195e-016 pclm=-0.0123225 lpclm=3.84886e-007 wpclm=8.17397e-007 ppclm=-3.23169e-013 
+ pdiblc1=0 pdiblc2=0.0196507 lpdiblc2=1.46329e-009 wpdiblc2=-6.35348e-009 ppdiblc2=-6.89866e-016 pdiblcb=-0.116243 lpdiblcb=4.14554e-008 wpdiblcb=2.05962e-007 ppdiblcb=-5.39871e-014 drout=0 pscbe1=7.70752e+008 pscbe2=1e-020 pvag=1.71485 
+ lpvag=-3.38253e-007 wpvag=-7.74811e-008 ppvag=-1.52956e-013 delta=0.01 ngate=1e+030 dsub=0 cit=0.00104355 lcit=-2.29622e-010 wcit=6.14629e-010 pcit=1.36209e-016 cdsc=0 cdscd=0 cdscb=0 xpart=0 cgso=3.15e-010 cgdo=3.15e-010 cgbo=1e-013 cgsl=0 cgdl=0 
+ ckappa=0.6 cf=0 clc=1e-007 cle=0.6 dlc=0 dwc=0 vfbcv=-0.720472 noff=1 voffcv=0 acde=0.5 moin=15 wln=1 wl=0 wwn=1 ww=0 wwl=0 lln=1 ll=0 lwn=1 lw=0 lwl=0 llc=0 lwc=0 lwlc=0 wlc=0 wwc=0 wwlc=0 alpha0=0 alpha1=0 beta0=30 af=1.09369 kf=4.13676e-023 
+ rsh=4 js=0.0001 jsw=0 cj=0.00121101 mj=0.398913 pb=0.786344 cjsw=5.3952e-011 mjsw=2 tref=27 prt=0.628378 ute=-1.29285 kt1=-0.227499 kt1l=0 kt2=-0.0211773 ua1=5.21908e-010 ub1=9.72591e-019 uc1=2.64618e-011 at=10798.4 xti=3 tcj=0.00092022 
+ tcjsw=-0.0079958 tpb=0.0022292 tpbsw=-0.0087143 elm=5 xl=0 xw=0 ldif=1e-007 hdif=2.7e-007 lmlt=1 wmlt=1 rd=0 rdc=0 rs=0 rsc=0 php=0.8 cjgate=2e-014 n=1 
