*** Title:

.global gnd! g_vda! g_vdd! g_gna! g_vcc! g_vdl! 

.param vdd=2.5 
.param vdl=2.5 
.param vda=2.5 
.param la=0.8um 
.param lb=0.9um 
.param tf0=100p 
.param tj=4n 
.param t0=500n 
.param tx=1n 
.param i0=10n 
.param v0=0.5 
.param e0=-0.000 
.param rx=2k 


v_vdc1_0 g_vda! gnd! 'vda' 
r_resn10_1 gnd! g_vda! resn r=1e+009 
v_vdc2_2 g_vdd! gnd! 'vdd' 
r_resn12_3 gnd! g_vdd! resn r=1e+009 
r_resn2_4 gnd! g_vdl! resn r=1e+009 
v_vdc7_5 g_vdl! gnd! 'vdl' 
r_resn1_6 gnd! port_l_6 resn r=1e+009 
v_vdc5_7 port_l_6 gnd! 0 
v_vdc4_8 port_h_5 gnd! 'vdl' 
r_resn3_9 gnd! port_r_10 resn r=1e+009 
r_resn17_10 gnd! port_dn_18 resn r=1e+009 
v_vdc3_11 g_gna! gnd! 0 
r_resn4_12 gnd! g_gna! resn r=1e+009 
r_resn5_13 gnd! g_vcc! resn r=1e+009 
v_vdc6_14 g_vcc! gnd! 5 
m_m1_15 n_11 n_13 g_vcc! gnd! n l=2.4e-007 w=5e-005 ad='((500u)/(10))*(lb*(1-(1)/(10))/2+la*(1)/(10))' as='((500u)/(10))*(lb*(1+(1)/(10)-2/(10))/2+la*(2-(1))/(10))' pd='((500u)/(10))*(1+(1)/(10))+2*(1)*la/(10)+(1-(1)/(10))*lb' 
+ ps='((500u)/(10))*(1+2/(10)-(1)/(10))+2*la*(2-(1))/(10)+lb*(1+(1)/(10)-2/(10))' m=10  
r_resn16_16 gnd! port_up_16 resn r=1e+009 
r_resn7_17 gnd! port_h_5 resn r=1e+009 
v_vpulse2_18 port_up_16 gnd! pulse 0 'vdl' 't0*2' 'tf0' 'tf0' 't0*1' '8*t0' 
v_vpulse1_19 port_r_10 gnd! pulse 0 'vdl' 't0*15' 'tf0' 'tf0' 't0' '1000*t0' 
r_resn6_20 gnd! port_on_15 resn r=1e+009 
v_vpulse3_21 port_dn_18 gnd! pulse 0 'vdl' 't0*6' 'tf0' 'tf0' 't0*1' '8*t0' 
v_vpulse4_22 port_on_15 gnd! pulse 0 'vdl' 0.0004 'tf0' 'tf0' 2e-005 6e-005 
r_resn8_23 gnd! port_ww_14 resn r=1e+009 
c_c1_24 n_13 gnd! cap1 c=2e-009 
v_vpulse5_25 port_ww_14 gnd! pulse 1.45 0.5 7e-005 'tf0' 'tf0' 2e-005 2 
r_resn9_26 port_ww_14 n_13 resn r=1000 
x_d4 n_20 port_up1_7 not1_l00 
x_d3 n_19 port_dn_18 port_on_15 and2_l01 
x_d5 n_19 port_dn1_4 not1_l00 
x_d6 port_on_15 n_17 not1_l00 
x_d1 port_h_5 port_r_10 n_12 gnd! n_11 port_l_6 port_up1_7 port_dn1_4 dac4 
x_d2 n_20 port_up_16 n_17 and2_l01 

.subckt dac4 port_on_16 port_r_76 port_err_77 port_gn_21 port_gp_13 port_of_5 port_up_2 port_dn_1 
m_m1_0 port_gp_13 n_18 port_gn_21 gnd! nh l=4e-007 w=1e-005 ad='((10u)/(1))*(lb*(1-(1)/(1))/2+la*(1)/(1))' as='((10u)/(1))*(lb*(1+(1)/(1)-2/(1))/2+la*(2-(1))/(1))' pd='((10u)/(1))*(1+(1)/(1))+2*(1)*la/(1)+(1-(1)/(1))*lb' 
+ ps='((10u)/(1))*(1+2/(1)-(1)/(1))+2*la*(2-(1))/(1)+lb*(1+(1)/(1)-2/(1))' m=1  
m_m2_1 n_7 port_on_16 n_18 gnd! n l=2.4e-007 w=1e-005 ad='((10u)/(1))*(lb*(1-(1)/(1))/2+la*(1)/(1))' as='((10u)/(1))*(lb*(1+(1)/(1)-2/(1))/2+la*(2-(1))/(1))' pd='((10u)/(1))*(1+(1)/(1))+2*(1)*la/(1)+(1-(1)/(1))*lb' 
+ ps='((10u)/(1))*(1+2/(1)-(1)/(1))+2*la*(2-(1))/(1)+lb*(1+(1)/(1)-2/(1))' m=1  
m_m3_2 n_18 n_22 gnd! gnd! n l=2.4e-007 w=1e-005 ad='((10u)/(1))*(lb*(1-(1)/(1))/2+la*(1)/(1))' as='((10u)/(1))*(lb*(1+(1)/(1)-2/(1))/2+la*(2-(1))/(1))' pd='((10u)/(1))*(1+(1)/(1))+2*(1)*la/(1)+(1-(1)/(1))*lb' 
+ ps='((10u)/(1))*(1+2/(1)-(1)/(1))+2*la*(2-(1))/(1)+lb*(1+(1)/(1)-2/(1))' m=1  
m_m6_3 n_28 n_27 n_18 gnd! n l=2.4e-007 w=6e-007 ad='((0.6u)/(1))*(lb*(1-(1)/(1))/2+la*(1)/(1))' as='((0.6u)/(1))*(lb*(1+(1)/(1)-2/(1))/2+la*(2-(1))/(1))' pd='((0.6u)/(1))*(1+(1)/(1))+2*(1)*la/(1)+(1-(1)/(1))*lb' 
+ ps='((0.6u)/(1))*(1+2/(1)-(1)/(1))+2*la*(2-(1))/(1)+lb*(1+(1)/(1)-2/(1))' m=1  
m_m5_4 gnd! n_26 n_28 gnd! n l=2.4e-007 w=6e-007 ad='((0.6u)/(1))*(lb*(1-(1)/(1))/2+la*(1)/(1))' as='((0.6u)/(1))*(lb*(1+(1)/(1)-2/(1))/2+la*(2-(1))/(1))' pd='((0.6u)/(1))*(1+(1)/(1))+2*(1)*la/(1)+(1-(1)/(1))*lb' 
+ ps='((0.6u)/(1))*(1+2/(1)-(1)/(1))+2*la*(2-(1))/(1)+lb*(1+(1)/(1)-2/(1))' m=1  
m_m23_5 gnd! n_82 n_86 gnd! n l=2.4e-007 w=6e-007 ad='((0.6u)/(1))*(lb*(1-(1)/(1))/2+la*(1)/(1))' as='((0.6u)/(1))*(lb*(1+(1)/(1)-2/(1))/2+la*(2-(1))/(1))' pd='((0.6u)/(1))*(1+(1)/(1))+2*(1)*la/(1)+(1-(1)/(1))*lb' 
+ ps='((0.6u)/(1))*(1+2/(1)-(1)/(1))+2*la*(2-(1))/(1)+lb*(1+(1)/(1)-2/(1))' m=1  
m_m24_6 n_86 n_85 n_18 gnd! n l=2.4e-007 w=6e-007 ad='((0.6u)/(1))*(lb*(1-(1)/(1))/2+la*(1)/(1))' as='((0.6u)/(1))*(lb*(1+(1)/(1)-2/(1))/2+la*(2-(1))/(1))' pd='((0.6u)/(1))*(1+(1)/(1))+2*(1)*la/(1)+(1-(1)/(1))*lb' 
+ ps='((0.6u)/(1))*(1+2/(1)-(1)/(1))+2*la*(2-(1))/(1)+lb*(1+(1)/(1)-2/(1))' m=1  
m_m20_7 gnd! n_73 n_78 gnd! n l=2.4e-007 w=6e-007 ad='((0.6u)/(1))*(lb*(1-(1)/(1))/2+la*(1)/(1))' as='((0.6u)/(1))*(lb*(1+(1)/(1)-2/(1))/2+la*(2-(1))/(1))' pd='((0.6u)/(1))*(1+(1)/(1))+2*(1)*la/(1)+(1-(1)/(1))*lb' 
+ ps='((0.6u)/(1))*(1+2/(1)-(1)/(1))+2*la*(2-(1))/(1)+lb*(1+(1)/(1)-2/(1))' m=1  
m_m21_8 n_78 n_75 n_18 gnd! n l=2.4e-007 w=6e-007 ad='((0.6u)/(1))*(lb*(1-(1)/(1))/2+la*(1)/(1))' as='((0.6u)/(1))*(lb*(1+(1)/(1)-2/(1))/2+la*(2-(1))/(1))' pd='((0.6u)/(1))*(1+(1)/(1))+2*(1)*la/(1)+(1-(1)/(1))*lb' 
+ ps='((0.6u)/(1))*(1+2/(1)-(1)/(1))+2*la*(2-(1))/(1)+lb*(1+(1)/(1)-2/(1))' m=1  
m_m17_9 gnd! n_63 n_68 gnd! n l=2.4e-007 w=6e-007 ad='((0.6u)/(1))*(lb*(1-(1)/(1))/2+la*(1)/(1))' as='((0.6u)/(1))*(lb*(1+(1)/(1)-2/(1))/2+la*(2-(1))/(1))' pd='((0.6u)/(1))*(1+(1)/(1))+2*(1)*la/(1)+(1-(1)/(1))*lb' 
+ ps='((0.6u)/(1))*(1+2/(1)-(1)/(1))+2*la*(2-(1))/(1)+lb*(1+(1)/(1)-2/(1))' m=1  
m_m18_10 n_68 n_67 n_18 gnd! n l=2.4e-007 w=6e-007 ad='((0.6u)/(1))*(lb*(1-(1)/(1))/2+la*(1)/(1))' as='((0.6u)/(1))*(lb*(1+(1)/(1)-2/(1))/2+la*(2-(1))/(1))' pd='((0.6u)/(1))*(1+(1)/(1))+2*(1)*la/(1)+(1-(1)/(1))*lb' 
+ ps='((0.6u)/(1))*(1+2/(1)-(1)/(1))+2*la*(2-(1))/(1)+lb*(1+(1)/(1)-2/(1))' m=1  
m_m14_11 gnd! n_54 n_59 gnd! n l=2.4e-007 w=6e-007 ad='((0.6u)/(1))*(lb*(1-(1)/(1))/2+la*(1)/(1))' as='((0.6u)/(1))*(lb*(1+(1)/(1)-2/(1))/2+la*(2-(1))/(1))' pd='((0.6u)/(1))*(1+(1)/(1))+2*(1)*la/(1)+(1-(1)/(1))*lb' 
+ ps='((0.6u)/(1))*(1+2/(1)-(1)/(1))+2*la*(2-(1))/(1)+lb*(1+(1)/(1)-2/(1))' m=1  
m_m15_12 n_59 n_58 n_18 gnd! n l=2.4e-007 w=6e-007 ad='((0.6u)/(1))*(lb*(1-(1)/(1))/2+la*(1)/(1))' as='((0.6u)/(1))*(lb*(1+(1)/(1)-2/(1))/2+la*(2-(1))/(1))' pd='((0.6u)/(1))*(1+(1)/(1))+2*(1)*la/(1)+(1-(1)/(1))*lb' 
+ ps='((0.6u)/(1))*(1+2/(1)-(1)/(1))+2*la*(2-(1))/(1)+lb*(1+(1)/(1)-2/(1))' m=1  
m_m11_13 gnd! n_46 n_49 gnd! n l=2.4e-007 w=6e-007 ad='((0.6u)/(1))*(lb*(1-(1)/(1))/2+la*(1)/(1))' as='((0.6u)/(1))*(lb*(1+(1)/(1)-2/(1))/2+la*(2-(1))/(1))' pd='((0.6u)/(1))*(1+(1)/(1))+2*(1)*la/(1)+(1-(1)/(1))*lb' 
+ ps='((0.6u)/(1))*(1+2/(1)-(1)/(1))+2*la*(2-(1))/(1)+lb*(1+(1)/(1)-2/(1))' m=1  
m_m12_14 n_49 n_48 n_18 gnd! n l=2.4e-007 w=6e-007 ad='((0.6u)/(1))*(lb*(1-(1)/(1))/2+la*(1)/(1))' as='((0.6u)/(1))*(lb*(1+(1)/(1)-2/(1))/2+la*(2-(1))/(1))' pd='((0.6u)/(1))*(1+(1)/(1))+2*(1)*la/(1)+(1-(1)/(1))*lb' 
+ ps='((0.6u)/(1))*(1+2/(1)-(1)/(1))+2*la*(2-(1))/(1)+lb*(1+(1)/(1)-2/(1))' m=1  
m_m8_15 gnd! n_33 n_38 gnd! n l=2.4e-007 w=6e-007 ad='((0.6u)/(1))*(lb*(1-(1)/(1))/2+la*(1)/(1))' as='((0.6u)/(1))*(lb*(1+(1)/(1)-2/(1))/2+la*(2-(1))/(1))' pd='((0.6u)/(1))*(1+(1)/(1))+2*(1)*la/(1)+(1-(1)/(1))*lb' 
+ ps='((0.6u)/(1))*(1+2/(1)-(1)/(1))+2*la*(2-(1))/(1)+lb*(1+(1)/(1)-2/(1))' m=1  
m_m9_16 n_38 n_37 n_18 gnd! n l=2.4e-007 w=6e-007 ad='((0.6u)/(1))*(lb*(1-(1)/(1))/2+la*(1)/(1))' as='((0.6u)/(1))*(lb*(1+(1)/(1)-2/(1))/2+la*(2-(1))/(1))' pd='((0.6u)/(1))*(1+(1)/(1))+2*(1)*la/(1)+(1-(1)/(1))*lb' 
+ ps='((0.6u)/(1))*(1+2/(1)-(1)/(1))+2*la*(2-(1))/(1)+lb*(1+(1)/(1)-2/(1))' m=1  
m_m27_17 n_18 n_88 n_89 gnd! n l=2.4e-007 w=6e-007 ad='((0.6u)/(1))*(lb*(1-(1)/(1))/2+la*(1)/(1))' as='((0.6u)/(1))*(lb*(1+(1)/(1)-2/(1))/2+la*(2-(1))/(1))' pd='((0.6u)/(1))*(1+(1)/(1))+2*(1)*la/(1)+(1-(1)/(1))*lb' 
+ ps='((0.6u)/(1))*(1+2/(1)-(1)/(1))+2*la*(2-(1))/(1)+lb*(1+(1)/(1)-2/(1))' m=1  
m_m26_18 n_89 n_90 gnd! gnd! n l=2.4e-007 w=6e-007 ad='((0.6u)/(1))*(lb*(1-(1)/(1))/2+la*(1)/(1))' as='((0.6u)/(1))*(lb*(1+(1)/(1)-2/(1))/2+la*(2-(1))/(1))' pd='((0.6u)/(1))*(1+(1)/(1))+2*(1)*la/(1)+(1-(1)/(1))*lb' 
+ ps='((0.6u)/(1))*(1+2/(1)-(1)/(1))+2*la*(2-(1))/(1)+lb*(1+(1)/(1)-2/(1))' m=1  
m_m30_19 n_18 n_80 n_81 gnd! n l=2.4e-007 w=6e-007 ad='((0.6u)/(1))*(lb*(1-(1)/(1))/2+la*(1)/(1))' as='((0.6u)/(1))*(lb*(1+(1)/(1)-2/(1))/2+la*(2-(1))/(1))' pd='((0.6u)/(1))*(1+(1)/(1))+2*(1)*la/(1)+(1-(1)/(1))*lb' 
+ ps='((0.6u)/(1))*(1+2/(1)-(1)/(1))+2*la*(2-(1))/(1)+lb*(1+(1)/(1)-2/(1))' m=1  
m_m29_20 n_81 n_84 gnd! gnd! n l=2.4e-007 w=6e-007 ad='((0.6u)/(1))*(lb*(1-(1)/(1))/2+la*(1)/(1))' as='((0.6u)/(1))*(lb*(1+(1)/(1)-2/(1))/2+la*(2-(1))/(1))' pd='((0.6u)/(1))*(1+(1)/(1))+2*(1)*la/(1)+(1-(1)/(1))*lb' 
+ ps='((0.6u)/(1))*(1+2/(1)-(1)/(1))+2*la*(2-(1))/(1)+lb*(1+(1)/(1)-2/(1))' m=1  
m_m33_21 n_18 n_70 n_71 gnd! n l=2.4e-007 w=6e-007 ad='((0.6u)/(1))*(lb*(1-(1)/(1))/2+la*(1)/(1))' as='((0.6u)/(1))*(lb*(1+(1)/(1)-2/(1))/2+la*(2-(1))/(1))' pd='((0.6u)/(1))*(1+(1)/(1))+2*(1)*la/(1)+(1-(1)/(1))*lb' 
+ ps='((0.6u)/(1))*(1+2/(1)-(1)/(1))+2*la*(2-(1))/(1)+lb*(1+(1)/(1)-2/(1))' m=1  
m_m32_22 n_71 n_74 gnd! gnd! n l=2.4e-007 w=6e-007 ad='((0.6u)/(1))*(lb*(1-(1)/(1))/2+la*(1)/(1))' as='((0.6u)/(1))*(lb*(1+(1)/(1)-2/(1))/2+la*(2-(1))/(1))' pd='((0.6u)/(1))*(1+(1)/(1))+2*(1)*la/(1)+(1-(1)/(1))*lb' 
+ ps='((0.6u)/(1))*(1+2/(1)-(1)/(1))+2*la*(2-(1))/(1)+lb*(1+(1)/(1)-2/(1))' m=1  
m_m36_23 n_18 n_61 n_62 gnd! n l=2.4e-007 w=6e-007 ad='((0.6u)/(1))*(lb*(1-(1)/(1))/2+la*(1)/(1))' as='((0.6u)/(1))*(lb*(1+(1)/(1)-2/(1))/2+la*(2-(1))/(1))' pd='((0.6u)/(1))*(1+(1)/(1))+2*(1)*la/(1)+(1-(1)/(1))*lb' 
+ ps='((0.6u)/(1))*(1+2/(1)-(1)/(1))+2*la*(2-(1))/(1)+lb*(1+(1)/(1)-2/(1))' m=1  
m_m35_24 n_62 n_66 gnd! gnd! n l=2.4e-007 w=6e-007 ad='((0.6u)/(1))*(lb*(1-(1)/(1))/2+la*(1)/(1))' as='((0.6u)/(1))*(lb*(1+(1)/(1)-2/(1))/2+la*(2-(1))/(1))' pd='((0.6u)/(1))*(1+(1)/(1))+2*(1)*la/(1)+(1-(1)/(1))*lb' 
+ ps='((0.6u)/(1))*(1+2/(1)-(1)/(1))+2*la*(2-(1))/(1)+lb*(1+(1)/(1)-2/(1))' m=1  
m_m39_25 n_18 n_52 n_53 gnd! n l=2.4e-007 w=6e-007 ad='((0.6u)/(1))*(lb*(1-(1)/(1))/2+la*(1)/(1))' as='((0.6u)/(1))*(lb*(1+(1)/(1)-2/(1))/2+la*(2-(1))/(1))' pd='((0.6u)/(1))*(1+(1)/(1))+2*(1)*la/(1)+(1-(1)/(1))*lb' 
+ ps='((0.6u)/(1))*(1+2/(1)-(1)/(1))+2*la*(2-(1))/(1)+lb*(1+(1)/(1)-2/(1))' m=1  
m_m38_26 n_53 n_56 gnd! gnd! n l=2.4e-007 w=6e-007 ad='((0.6u)/(1))*(lb*(1-(1)/(1))/2+la*(1)/(1))' as='((0.6u)/(1))*(lb*(1+(1)/(1)-2/(1))/2+la*(2-(1))/(1))' pd='((0.6u)/(1))*(1+(1)/(1))+2*(1)*la/(1)+(1-(1)/(1))*lb' 
+ ps='((0.6u)/(1))*(1+2/(1)-(1)/(1))+2*la*(2-(1))/(1)+lb*(1+(1)/(1)-2/(1))' m=1  
m_m42_27 n_18 n_42 n_44 gnd! n l=2.4e-007 w=6e-007 ad='((0.6u)/(1))*(lb*(1-(1)/(1))/2+la*(1)/(1))' as='((0.6u)/(1))*(lb*(1+(1)/(1)-2/(1))/2+la*(2-(1))/(1))' pd='((0.6u)/(1))*(1+(1)/(1))+2*(1)*la/(1)+(1-(1)/(1))*lb' 
+ ps='((0.6u)/(1))*(1+2/(1)-(1)/(1))+2*la*(2-(1))/(1)+lb*(1+(1)/(1)-2/(1))' m=1  
m_m41_28 n_44 n_47 gnd! gnd! n l=2.4e-007 w=6e-007 ad='((0.6u)/(1))*(lb*(1-(1)/(1))/2+la*(1)/(1))' as='((0.6u)/(1))*(lb*(1+(1)/(1)-2/(1))/2+la*(2-(1))/(1))' pd='((0.6u)/(1))*(1+(1)/(1))+2*(1)*la/(1)+(1-(1)/(1))*lb' 
+ ps='((0.6u)/(1))*(1+2/(1)-(1)/(1))+2*la*(2-(1))/(1)+lb*(1+(1)/(1)-2/(1))' m=1  
m_m45_29 n_18 n_30 n_31 gnd! n l=2.4e-007 w=6e-007 ad='((0.6u)/(1))*(lb*(1-(1)/(1))/2+la*(1)/(1))' as='((0.6u)/(1))*(lb*(1+(1)/(1)-2/(1))/2+la*(2-(1))/(1))' pd='((0.6u)/(1))*(1+(1)/(1))+2*(1)*la/(1)+(1-(1)/(1))*lb' 
+ ps='((0.6u)/(1))*(1+2/(1)-(1)/(1))+2*la*(2-(1))/(1)+lb*(1+(1)/(1)-2/(1))' m=1  
m_m44_30 n_31 n_36 gnd! gnd! n l=2.4e-007 w=6e-007 ad='((0.6u)/(1))*(lb*(1-(1)/(1))/2+la*(1)/(1))' as='((0.6u)/(1))*(lb*(1+(1)/(1)-2/(1))/2+la*(2-(1))/(1))' pd='((0.6u)/(1))*(1+(1)/(1))+2*(1)*la/(1)+(1-(1)/(1))*lb' 
+ ps='((0.6u)/(1))*(1+2/(1)-(1)/(1))+2*la*(2-(1))/(1)+lb*(1+(1)/(1)-2/(1))' m=1  
m_m48_31 n_18 n_20 n_23 gnd! n l=2.4e-007 w=6e-007 ad='((0.6u)/(1))*(lb*(1-(1)/(1))/2+la*(1)/(1))' as='((0.6u)/(1))*(lb*(1+(1)/(1)-2/(1))/2+la*(2-(1))/(1))' pd='((0.6u)/(1))*(1+(1)/(1))+2*(1)*la/(1)+(1-(1)/(1))*lb' 
+ ps='((0.6u)/(1))*(1+2/(1)-(1)/(1))+2*la*(2-(1))/(1)+lb*(1+(1)/(1)-2/(1))' m=1  
m_m47_32 n_23 n_25 gnd! gnd! n l=2.4e-007 w=6e-007 ad='((0.6u)/(1))*(lb*(1-(1)/(1))/2+la*(1)/(1))' as='((0.6u)/(1))*(lb*(1+(1)/(1)-2/(1))/2+la*(2-(1))/(1))' pd='((0.6u)/(1))*(1+(1)/(1))+2*(1)*la/(1)+(1-(1)/(1))*lb' 
+ ps='((0.6u)/(1))*(1+2/(1)-(1)/(1))+2*la*(2-(1))/(1)+lb*(1+(1)/(1)-2/(1))' m=1  
m_m4_33 port_gp_13 n_28 port_gn_21 gnd! nh l=4e-007 w=4.3e-006 ad='((4.3u)/(1))*(lb*(1-(1)/(1))/2+la*(1)/(1))' as='((4.3u)/(1))*(lb*(1+(1)/(1)-2/(1))/2+la*(2-(1))/(1))' pd='((4.3u)/(1))*(1+(1)/(1))+2*(1)*la/(1)+(1-(1)/(1))*lb' 
+ ps='((4.3u)/(1))*(1+2/(1)-(1)/(1))+2*la*(2-(1))/(1)+lb*(1+(1)/(1)-2/(1))' m=1  
m_m7_34 port_gp_13 n_38 port_gn_21 gnd! nh l=4e-007 w=1.93333e-006 ad='((5.8u)/(3))*(lb*(1-(1)/(3))/2+la*(1)/(3))' as='((5.8u)/(3))*(lb*(1+(1)/(3)-2/(3))/2+la*(2-(1))/(3))' pd='((5.8u)/(3))*(1+(1)/(3))+2*(1)*la/(3)+(1-(1)/(3))*lb' 
+ ps='((5.8u)/(3))*(1+2/(3)-(1)/(3))+2*la*(2-(1))/(3)+lb*(1+(1)/(3)-2/(3))' m=3  
m_m10_35 port_gp_13 n_49 port_gn_21 gnd! nh l=4e-007 w=2.93333e-006 ad='((8.8u)/(3))*(lb*(1-(1)/(3))/2+la*(1)/(3))' as='((8.8u)/(3))*(lb*(1+(1)/(3)-2/(3))/2+la*(2-(1))/(3))' pd='((8.8u)/(3))*(1+(1)/(3))+2*(1)*la/(3)+(1-(1)/(3))*lb' 
+ ps='((8.8u)/(3))*(1+2/(3)-(1)/(3))+2*la*(2-(1))/(3)+lb*(1+(1)/(3)-2/(3))' m=3  
m_m13_36 port_gp_13 n_59 port_gn_21 gnd! nh l=4e-007 w=4e-006 ad='((12u)/(3))*(lb*(1-(1)/(3))/2+la*(1)/(3))' as='((12u)/(3))*(lb*(1+(1)/(3)-2/(3))/2+la*(2-(1))/(3))' pd='((12u)/(3))*(1+(1)/(3))+2*(1)*la/(3)+(1-(1)/(3))*lb' 
+ ps='((12u)/(3))*(1+2/(3)-(1)/(3))+2*la*(2-(1))/(3)+lb*(1+(1)/(3)-2/(3))' m=3  
m_m16_37 port_gp_13 n_68 port_gn_21 gnd! nh l=4e-007 w=5.56667e-006 ad='((16.7u)/(3))*(lb*(1-(1)/(3))/2+la*(1)/(3))' as='((16.7u)/(3))*(lb*(1+(1)/(3)-2/(3))/2+la*(2-(1))/(3))' pd='((16.7u)/(3))*(1+(1)/(3))+2*(1)*la/(3)+(1-(1)/(3))*lb' 
+ ps='((16.7u)/(3))*(1+2/(3)-(1)/(3))+2*la*(2-(1))/(3)+lb*(1+(1)/(3)-2/(3))' m=3  
m_m19_38 port_gp_13 n_78 port_gn_21 gnd! nh l=4e-007 w=7.66667e-006 ad='((23u)/(3))*(lb*(1-(1)/(3))/2+la*(1)/(3))' as='((23u)/(3))*(lb*(1+(1)/(3)-2/(3))/2+la*(2-(1))/(3))' pd='((23u)/(3))*(1+(1)/(3))+2*(1)*la/(3)+(1-(1)/(3))*lb' 
+ ps='((23u)/(3))*(1+2/(3)-(1)/(3))+2*la*(2-(1))/(3)+lb*(1+(1)/(3)-2/(3))' m=3  
m_m22_39 port_gp_13 n_86 port_gn_21 gnd! nh l=4e-007 w=1.2e-005 ad='((36u)/(3))*(lb*(1-(1)/(3))/2+la*(1)/(3))' as='((36u)/(3))*(lb*(1+(1)/(3)-2/(3))/2+la*(2-(1))/(3))' pd='((36u)/(3))*(1+(1)/(3))+2*(1)*la/(3)+(1-(1)/(3))*lb' 
+ ps='((36u)/(3))*(1+2/(3)-(1)/(3))+2*la*(2-(1))/(3)+lb*(1+(1)/(3)-2/(3))' m=3  
m_m25_40 port_gn_21 n_89 port_gp_13 gnd! nh l=4e-007 w=1.63333e-005 ad='((49u)/(3))*(lb*(1-(1)/(3))/2+la*(1)/(3))' as='((49u)/(3))*(lb*(1+(1)/(3)-2/(3))/2+la*(2-(1))/(3))' pd='((49u)/(3))*(1+(1)/(3))+2*(1)*la/(3)+(1-(1)/(3))*lb' 
+ ps='((49u)/(3))*(1+2/(3)-(1)/(3))+2*la*(2-(1))/(3)+lb*(1+(1)/(3)-2/(3))' m=3  
m_m28_41 port_gn_21 n_81 port_gp_13 gnd! nh l=4e-007 w=2.33333e-005 ad='((70u)/(3))*(lb*(1-(1)/(3))/2+la*(1)/(3))' as='((70u)/(3))*(lb*(1+(1)/(3)-2/(3))/2+la*(2-(1))/(3))' pd='((70u)/(3))*(1+(1)/(3))+2*(1)*la/(3)+(1-(1)/(3))*lb' 
+ ps='((70u)/(3))*(1+2/(3)-(1)/(3))+2*la*(2-(1))/(3)+lb*(1+(1)/(3)-2/(3))' m=3  
m_m31_42 port_gn_21 n_71 port_gp_13 gnd! nh l=4e-007 w=3.26667e-005 ad='((98u)/(3))*(lb*(1-(1)/(3))/2+la*(1)/(3))' as='((98u)/(3))*(lb*(1+(1)/(3)-2/(3))/2+la*(2-(1))/(3))' pd='((98u)/(3))*(1+(1)/(3))+2*(1)*la/(3)+(1-(1)/(3))*lb' 
+ ps='((98u)/(3))*(1+2/(3)-(1)/(3))+2*la*(2-(1))/(3)+lb*(1+(1)/(3)-2/(3))' m=3  
m_m34_43 port_gn_21 n_62 port_gp_13 gnd! nh l=4e-007 w=3.5e-005 ad='((140u)/(4))*(lb*(1-(1)/(4))/2+la*(1)/(4))' as='((140u)/(4))*(lb*(1+(1)/(4)-2/(4))/2+la*(2-(1))/(4))' pd='((140u)/(4))*(1+(1)/(4))+2*(1)*la/(4)+(1-(1)/(4))*lb' 
+ ps='((140u)/(4))*(1+2/(4)-(1)/(4))+2*la*(2-(1))/(4)+lb*(1+(1)/(4)-2/(4))' m=4  
m_m37_44 port_gn_21 n_53 port_gp_13 gnd! nh l=4e-007 w=4.95e-005 ad='((198u)/(4))*(lb*(1-(1)/(4))/2+la*(1)/(4))' as='((198u)/(4))*(lb*(1+(1)/(4)-2/(4))/2+la*(2-(1))/(4))' pd='((198u)/(4))*(1+(1)/(4))+2*(1)*la/(4)+(1-(1)/(4))*lb' 
+ ps='((198u)/(4))*(1+2/(4)-(1)/(4))+2*la*(2-(1))/(4)+lb*(1+(1)/(4)-2/(4))' m=4  
m_m40_45 port_gn_21 n_44 port_gp_13 gnd! nh l=4e-007 w=7.25e-005 ad='((290u)/(4))*(lb*(1-(1)/(4))/2+la*(1)/(4))' as='((290u)/(4))*(lb*(1+(1)/(4)-2/(4))/2+la*(2-(1))/(4))' pd='((290u)/(4))*(1+(1)/(4))+2*(1)*la/(4)+(1-(1)/(4))*lb' 
+ ps='((290u)/(4))*(1+2/(4)-(1)/(4))+2*la*(2-(1))/(4)+lb*(1+(1)/(4)-2/(4))' m=4  
m_m43_46 port_gn_21 n_31 port_gp_13 gnd! nh l=4e-007 w=5e-005 ad='((400u)/(8))*(lb*(1-(1)/(8))/2+la*(1)/(8))' as='((400u)/(8))*(lb*(1+(1)/(8)-2/(8))/2+la*(2-(1))/(8))' pd='((400u)/(8))*(1+(1)/(8))+2*(1)*la/(8)+(1-(1)/(8))*lb' 
+ ps='((400u)/(8))*(1+2/(8)-(1)/(8))+2*la*(2-(1))/(8)+lb*(1+(1)/(8)-2/(8))' m=8  
m_m46_47 port_gn_21 n_23 port_gp_13 gnd! nh l=4e-007 w=5e-005 ad='((600u)/(12))*(lb*(1-(1)/(12))/2+la*(1)/(12))' as='((600u)/(12))*(lb*(1+(1)/(12)-2/(12))/2+la*(2-(1))/(12))' pd='((600u)/(12))*(1+(1)/(12))+2*(1)*la/(12)+(1-(1)/(12))*lb' 
+ ps='((600u)/(12))*(1+2/(12)-(1)/(12))+2*la*(2-(1))/(12)+lb*(1+(1)/(12)-2/(12))' m=12  
x_d60 n_32 port_err_77 not1_l00 
x_d57 n_15 n_43 n_32 n_35 n_57 n_50 crev_l012 
x_d33 n_60 n_17 n_15 n_24 and3_l017 
x_d40 n_40 n_17 n_14 n_24 and3_l017 
x_d1 port_on_16 n_22 not_l015 
x_d7 n_15 n_45 not_l015 
x_d61 port_r_76 n_43 buf_l018 
x_d59 n_35 n_65 not_l015 
x_d58 n_17 n_43 n_32 n_35 n_65 n_57 crev_l012 
x_d54 n_9 n_35 not1_l00 
x_d53 n_10 n_32 buf_l018 
x_d55 n_24 n_43 n_32 n_35 n_41 n_39 crev_l012 
x_d56 n_14 n_43 n_32 n_35 n_50 n_41 crev_l012 
x_d13 n_14 n_64 not_l015 
x_d2 n_27 n_26 not_l015 
x_d4 n_17 n_34 not_l015 
x_d10 n_55 n_15 n_17 and2_l01 
x_d16 n_72 n_17 n_14 and2_l01 
x_d19 n_83 n_15 n_14 and2_l01 
x_d22 n_91 n_17 n_15 n_14 and3_l017 
x_d6 n_37 n_45 n_46 and2_l01 
x_d8 n_48 n_46 not_l015 
x_d9 n_48 n_55 n_54 and2_l01 
x_d11 n_58 n_54 not_l015 
x_d18 n_75 n_83 n_82 and2_l01 
x_d20 n_85 n_82 not_l015 
x_d21 n_85 n_91 n_90 and2_l01 
x_d25 n_24 n_87 not_l015 
x_d23 n_88 n_90 not_l015 
x_d24 n_88 n_87 n_84 and2_l01 
x_d26 n_80 n_84 not_l015 
x_d27 n_80 n_79 n_74 and2_l01 
x_d31 n_69 n_24 n_15 and2_l01 
x_d28 n_79 n_24 n_17 and2_l01 
x_d37 n_51 n_24 n_14 and2_l01 
x_d43 n_29 n_24 n_14 n_15 and3_l017 
x_d45 n_11 n_20 not_l015 
x_d29 n_70 n_74 not_l015 
x_d30 n_70 n_69 n_66 and2_l01 
x_d32 n_61 n_66 not_l015 
x_d34 n_61 n_60 n_56 and2_l01 
x_d35 n_52 n_56 not_l015 
x_d36 n_52 n_51 n_47 and2_l01 
x_d38 n_42 n_47 not_l015 
x_d39 n_42 n_40 n_36 and2_l01 
x_d41 n_30 n_36 not_l015 
x_d12 n_58 n_64 n_63 and2_l01 
x_d14 n_67 n_63 not_l015 
x_d3 n_27 n_34 n_33 and2_l01 
x_d5 n_37 n_33 not_l015 
x_d15 n_67 n_72 n_73 and2_l01 
x_d17 n_75 n_73 not_l015 
x_d44 n_20 n_25 not_l015 
x_d42 n_30 n_29 n_25 and2_l01 
x_d46 n_11 n_14 n_15 n_17 n_24 and4_l019 
x_d47 n_3 n_6 n_11 port_up_2 and3_l017 
x_d48 n_4 port_dn_1 n_12 and2_l01 
x_d66 n_10 n_4 n_3 and2_l01 
x_d67 n_3 n_4 n_9 n_8 rs1_l020 
x_d65 n_15 n_14 n_19 n_24 n_17 or4_l021 
x_d64 n_19 n_12 not_l015 
x_da1 port_of_5 n_6 port_gp_13 n_7 refm 
.ends

.subckt refm port_of_1 port_q_17 port_x_12 port_rf_8 
m_m7_0 n_13 n_6 n_14 g_vda! p l=8e-007 w=3e-006 ad='((3u)/(1))*(lb*(1-(1)/(1))/2+la*(1)/(1))' as='((3u)/(1))*(lb*(1+(1)/(1)-2/(1))/2+la*(2-(1))/(1))' pd='((3u)/(1))*(1+(1)/(1))+2*(1)*la/(1)+(1-(1)/(1))*lb' 
+ ps='((3u)/(1))*(1+2/(1)-(1)/(1))+2*la*(2-(1))/(1)+lb*(1+(1)/(1)-2/(1))' m=1  
m_m1_1 n_11 n_2 g_vda! g_vda! p l=8e-007 w=1e-005 ad='((10u)/(1))*(lb*(1-(1)/(1))/2+la*(1)/(1))' as='((10u)/(1))*(lb*(1+(1)/(1)-2/(1))/2+la*(2-(1))/(1))' pd='((10u)/(1))*(1+(1)/(1))+2*(1)*la/(1)+(1-(1)/(1))*lb' 
+ ps='((10u)/(1))*(1+2/(1)-(1)/(1))+2*la*(2-(1))/(1)+lb*(1+(1)/(1)-2/(1))' m=1  
m_m2_2 n_10 n_6 n_11 g_vda! p l=8e-007 w=1e-005 ad='((10u)/(1))*(lb*(1-(1)/(1))/2+la*(1)/(1))' as='((10u)/(1))*(lb*(1+(1)/(1)-2/(1))/2+la*(2-(1))/(1))' pd='((10u)/(1))*(1+(1)/(1))+2*(1)*la/(1)+(1-(1)/(1))*lb' 
+ ps='((10u)/(1))*(1+2/(1)-(1)/(1))+2*la*(2-(1))/(1)+lb*(1+(1)/(1)-2/(1))' m=1  
m_m6_3 n_14 n_2 g_vda! g_vda! p l=8e-007 w=3e-006 ad='((3u)/(1))*(lb*(1-(1)/(1))/2+la*(1)/(1))' as='((3u)/(1))*(lb*(1+(1)/(1)-2/(1))/2+la*(2-(1))/(1))' pd='((3u)/(1))*(1+(1)/(1))+2*(1)*la/(1)+(1-(1)/(1))*lb' 
+ ps='((3u)/(1))*(1+2/(1)-(1)/(1))+2*la*(2-(1))/(1)+lb*(1+(1)/(1)-2/(1))' m=1  
m_m8_4 n_15 n_2 g_vda! g_vda! p l=8e-007 w=1e-005 ad='((10u)/(1))*(lb*(1-(1)/(1))/2+la*(1)/(1))' as='((10u)/(1))*(lb*(1+(1)/(1)-2/(1))/2+la*(2-(1))/(1))' pd='((10u)/(1))*(1+(1)/(1))+2*(1)*la/(1)+(1-(1)/(1))*lb' 
+ ps='((10u)/(1))*(1+2/(1)-(1)/(1))+2*la*(2-(1))/(1)+lb*(1+(1)/(1)-2/(1))' m=1  
m_m9_5 n_16 n_6 n_15 g_vda! p l=8e-007 w=1e-005 ad='((10u)/(1))*(lb*(1-(1)/(1))/2+la*(1)/(1))' as='((10u)/(1))*(lb*(1+(1)/(1)-2/(1))/2+la*(2-(1))/(1))' pd='((10u)/(1))*(1+(1)/(1))+2*(1)*la/(1)+(1-(1)/(1))*lb' 
+ ps='((10u)/(1))*(1+2/(1)-(1)/(1))+2*la*(2-(1))/(1)+lb*(1+(1)/(1)-2/(1))' m=1  
m_m10_6 n_16 port_q_17 n_13 gnd! n l=2.4e-007 w=6e-007 ad='((0.6u)/(1))*(lb*(1-(1)/(1))/2+la*(1)/(1))' as='((0.6u)/(1))*(lb*(1+(1)/(1)-2/(1))/2+la*(2-(1))/(1))' pd='((0.6u)/(1))*(1+(1)/(1))+2*(1)*la/(1)+(1-(1)/(1))*lb' 
+ ps='((0.6u)/(1))*(1+2/(1)-(1)/(1))+2*la*(2-(1))/(1)+lb*(1+(1)/(1)-2/(1))' m=1  
m_m12_7 n_13 port_of_1 gnd! gnd! n l=2.4e-007 w=6e-007 ad='((0.6u)/(1))*(lb*(1-(1)/(1))/2+la*(1)/(1))' as='((0.6u)/(1))*(lb*(1+(1)/(1)-2/(1))/2+la*(2-(1))/(1))' pd='((0.6u)/(1))*(1+(1)/(1))+2*(1)*la/(1)+(1-(1)/(1))*lb' 
+ ps='((0.6u)/(1))*(1+2/(1)-(1)/(1))+2*la*(2-(1))/(1)+lb*(1+(1)/(1)-2/(1))' m=1  
m_m11_8 n_13 port_rf_8 port_x_12 gnd! nh l=4e-007 w=6e-007 ad='((0.6u)/(1))*(lb*(1-(1)/(1))/2+la*(1)/(1))' as='((0.6u)/(1))*(lb*(1+(1)/(1)-2/(1))/2+la*(2-(1))/(1))' pd='((0.6u)/(1))*(1+(1)/(1))+2*(1)*la/(1)+(1-(1)/(1))*lb' 
+ ps='((0.6u)/(1))*(1+2/(1)-(1)/(1))+2*la*(2-(1))/(1)+lb*(1+(1)/(1)-2/(1))' m=1  
m_m4_9 n_10 port_rf_8 gnd! gnd! nh l=1.2e-006 w=6e-007 ad='((0.6u)/(1))*(lb*(1-(1)/(1))/2+la*(1)/(1))' as='((0.6u)/(1))*(lb*(1+(1)/(1)-2/(1))/2+la*(2-(1))/(1))' pd='((0.6u)/(1))*(1+(1)/(1))+2*(1)*la/(1)+(1-(1)/(1))*lb' 
+ ps='((0.6u)/(1))*(1+2/(1)-(1)/(1))+2*la*(2-(1))/(1)+lb*(1+(1)/(1)-2/(1))' m=1  
m_m3_10 g_vda! n_10 port_rf_8 gnd! n l=2.4e-007 w=5e-005 ad='((150u)/(3))*(lb*(1-(1)/(3))/2+la*(1)/(3))' as='((150u)/(3))*(lb*(1+(1)/(3)-2/(3))/2+la*(2-(1))/(3))' pd='((150u)/(3))*(1+(1)/(3))+2*(1)*la/(3)+(1-(1)/(3))*lb' 
+ ps='((150u)/(3))*(1+2/(3)-(1)/(3))+2*la*(2-(1))/(3)+lb*(1+(1)/(3)-2/(3))' m=3  
m_m5_11 port_rf_8 port_rf_8 gnd! gnd! nh l=6e-007 w=6e-007 ad='((0.6u)/(1))*(lb*(1-(1)/(1))/2+la*(1)/(1))' as='((0.6u)/(1))*(lb*(1+(1)/(1)-2/(1))/2+la*(2-(1))/(1))' pd='((0.6u)/(1))*(1+(1)/(1))+2*(1)*la/(1)+(1-(1)/(1))*lb' 
+ ps='((0.6u)/(1))*(1+2/(1)-(1)/(1))+2*la*(2-(1))/(1)+lb*(1+(1)/(1)-2/(1))' m=1  
x_d2 port_q_17 n_13 tsm_l011 
x_da1 n_4 n_3 n_6 n_2 n_5 n_7 port_of_1 ref18_l022 
.ends

.subckt not1_l00 port_x_0 port_q_2 
m_m1_0 port_q_2 port_x_0 g_vdl! g_vdl! p l=2.4e-007 w=7.2e-006 ad='((7.2u)/(1))*(lb*(1-(1)/(1))/2+la*(1)/(1))' as='((7.2u)/(1))*(lb*(1+(1)/(1)-2/(1))/2+la*(2-(1))/(1))' pd='((7.2u)/(1))*(1+(1)/(1))+2*(1)*la/(1)+(1-(1)/(1))*lb' 
+ ps='((7.2u)/(1))*(1+2/(1)-(1)/(1))+2*la*(2-(1))/(1)+lb*(1+(1)/(1)-2/(1))' m=1  
m_m2_1 port_q_2 port_x_0 gnd! gnd! n l=2.4e-007 w=2.5e-006 ad='((2.5u)/(1))*(lb*(1-(1)/(1))/2+la*(1)/(1))' as='((2.5u)/(1))*(lb*(1+(1)/(1)-2/(1))/2+la*(2-(1))/(1))' pd='((2.5u)/(1))*(1+(1)/(1))+2*(1)*la/(1)+(1-(1)/(1))*lb' 
+ ps='((2.5u)/(1))*(1+2/(1)-(1)/(1))+2*la*(2-(1))/(1)+lb*(1+(1)/(1)-2/(1))' m=1  
.ends

.subckt and2_l01 port_q_2 port_x1_0 port_x2_3 
m_m1_0 port_q_2 port_x1_0 g_vdl! g_vdl! p l=2.4e-007 w=1.5e-006 ad='((1.5u)/(1))*(lb*(1-(1)/(1))/2+la*(1)/(1))' as='((1.5u)/(1))*(lb*(1+(1)/(1)-2/(1))/2+la*(2-(1))/(1))' pd='((1.5u)/(1))*(1+(1)/(1))+2*(1)*la/(1)+(1-(1)/(1))*lb' 
+ ps='((1.5u)/(1))*(1+2/(1)-(1)/(1))+2*la*(2-(1))/(1)+lb*(1+(1)/(1)-2/(1))' m=1  
m_m2_1 port_q_2 port_x2_3 g_vdl! g_vdl! p l=2.4e-007 w=1.5e-006 ad='((1.5u)/(1))*(lb*(1-(1)/(1))/2+la*(1)/(1))' as='((1.5u)/(1))*(lb*(1+(1)/(1)-2/(1))/2+la*(2-(1))/(1))' pd='((1.5u)/(1))*(1+(1)/(1))+2*(1)*la/(1)+(1-(1)/(1))*lb' 
+ ps='((1.5u)/(1))*(1+2/(1)-(1)/(1))+2*la*(2-(1))/(1)+lb*(1+(1)/(1)-2/(1))' m=1  
m_m3_2 port_q_2 port_x2_3 n_5 gnd! n l=2.4e-007 w=1e-006 ad='((1.0u)/(1))*(lb*(1-(1)/(1))/2+la*(1)/(1))' as='((1.0u)/(1))*(lb*(1+(1)/(1)-2/(1))/2+la*(2-(1))/(1))' pd='((1.0u)/(1))*(1+(1)/(1))+2*(1)*la/(1)+(1-(1)/(1))*lb' 
+ ps='((1.0u)/(1))*(1+2/(1)-(1)/(1))+2*la*(2-(1))/(1)+lb*(1+(1)/(1)-2/(1))' m=1  
m_m4_3 n_5 port_x1_0 gnd! gnd! n l=2.4e-007 w=1e-006 ad='((1.0u)/(1))*(lb*(1-(1)/(1))/2+la*(1)/(1))' as='((1.0u)/(1))*(lb*(1+(1)/(1)-2/(1))/2+la*(2-(1))/(1))' pd='((1.0u)/(1))*(1+(1)/(1))+2*(1)*la/(1)+(1-(1)/(1))*lb' 
+ ps='((1.0u)/(1))*(1+2/(1)-(1)/(1))+2*la*(2-(1))/(1)+lb*(1+(1)/(1)-2/(1))' m=1  
.ends

.subckt tsm_l011 port_q_6 port_x_0 
m_m1_0 n_2 port_x_0 g_vdl! g_vdl! ph l=3.6e-007 w=6e-007 ad='((0.6u)/(1))*(lb*(1-(1)/(1))/2+la*(1)/(1))' as='((0.6u)/(1))*(lb*(1+(1)/(1)-2/(1))/2+la*(2-(1))/(1))' pd='((0.6u)/(1))*(1+(1)/(1))+2*(1)*la/(1)+(1-(1)/(1))*lb' 
+ ps='((0.6u)/(1))*(1+2/(1)-(1)/(1))+2*la*(2-(1))/(1)+lb*(1+(1)/(1)-2/(1))' m=1  
m_m2_1 n_2 n_4 g_vdl! g_vdl! ph l=3e-007 w=1.14e-006 ad='((1.14u)/(1))*(lb*(1-(1)/(1))/2+la*(1)/(1))' as='((1.14u)/(1))*(lb*(1+(1)/(1)-2/(1))/2+la*(2-(1))/(1))' pd='((1.14u)/(1))*(1+(1)/(1))+2*(1)*la/(1)+(1-(1)/(1))*lb' 
+ ps='((1.14u)/(1))*(1+2/(1)-(1)/(1))+2*la*(2-(1))/(1)+lb*(1+(1)/(1)-2/(1))' m=1  
m_m3_2 n_4 n_2 g_vdl! g_vdl! p l=2.4e-007 w=1.5e-006 ad='((1.5u)/(1))*(lb*(1-(1)/(1))/2+la*(1)/(1))' as='((1.5u)/(1))*(lb*(1+(1)/(1)-2/(1))/2+la*(2-(1))/(1))' pd='((1.5u)/(1))*(1+(1)/(1))+2*(1)*la/(1)+(1-(1)/(1))*lb' 
+ ps='((1.5u)/(1))*(1+2/(1)-(1)/(1))+2*la*(2-(1))/(1)+lb*(1+(1)/(1)-2/(1))' m=1  
m_m4_3 n_5 n_4 g_vdl! g_vdl! p l=2.4e-007 w=1.5e-006 ad='((1.5u)/(1))*(lb*(1-(1)/(1))/2+la*(1)/(1))' as='((1.5u)/(1))*(lb*(1+(1)/(1)-2/(1))/2+la*(2-(1))/(1))' pd='((1.5u)/(1))*(1+(1)/(1))+2*(1)*la/(1)+(1-(1)/(1))*lb' 
+ ps='((1.5u)/(1))*(1+2/(1)-(1)/(1))+2*la*(2-(1))/(1)+lb*(1+(1)/(1)-2/(1))' m=1  
m_m5_4 n_5 port_q_6 g_vdl! g_vdl! p l=2.4e-007 w=9e-007 ad='((0.9u)/(1))*(lb*(1-(1)/(1))/2+la*(1)/(1))' as='((0.9u)/(1))*(lb*(1+(1)/(1)-2/(1))/2+la*(2-(1))/(1))' pd='((0.9u)/(1))*(1+(1)/(1))+2*(1)*la/(1)+(1-(1)/(1))*lb' 
+ ps='((0.9u)/(1))*(1+2/(1)-(1)/(1))+2*la*(2-(1))/(1)+lb*(1+(1)/(1)-2/(1))' m=1  
m_m6_5 port_q_6 n_5 g_vdl! g_vdl! p l=2.4e-007 w=7.2e-006 ad='((7.2u)/(1))*(lb*(1-(1)/(1))/2+la*(1)/(1))' as='((7.2u)/(1))*(lb*(1+(1)/(1)-2/(1))/2+la*(2-(1))/(1))' pd='((7.2u)/(1))*(1+(1)/(1))+2*(1)*la/(1)+(1-(1)/(1))*lb' 
+ ps='((7.2u)/(1))*(1+2/(1)-(1)/(1))+2*la*(2-(1))/(1)+lb*(1+(1)/(1)-2/(1))' m=1  
m_m7_6 n_2 port_x_0 gnd! gnd! nh l=4e-007 w=6e-007 ad='((0.6u)/(1))*(lb*(1-(1)/(1))/2+la*(1)/(1))' as='((0.6u)/(1))*(lb*(1+(1)/(1)-2/(1))/2+la*(2-(1))/(1))' pd='((0.6u)/(1))*(1+(1)/(1))+2*(1)*la/(1)+(1-(1)/(1))*lb' 
+ ps='((0.6u)/(1))*(1+2/(1)-(1)/(1))+2*la*(2-(1))/(1)+lb*(1+(1)/(1)-2/(1))' m=1  
m_m8_7 n_2 n_4 gnd! gnd! nh l=4e-006 w=4e-007 ad='((0.4u)/(1))*(lb*(1-(1)/(1))/2+la*(1)/(1))' as='((0.4u)/(1))*(lb*(1+(1)/(1)-2/(1))/2+la*(2-(1))/(1))' pd='((0.4u)/(1))*(1+(1)/(1))+2*(1)*la/(1)+(1-(1)/(1))*lb' 
+ ps='((0.4u)/(1))*(1+2/(1)-(1)/(1))+2*la*(2-(1))/(1)+lb*(1+(1)/(1)-2/(1))' m=1  
m_m9_8 n_4 n_2 gnd! gnd! n l=2.4e-007 w=6e-007 ad='((0.6u)/(1))*(lb*(1-(1)/(1))/2+la*(1)/(1))' as='((0.6u)/(1))*(lb*(1+(1)/(1)-2/(1))/2+la*(2-(1))/(1))' pd='((0.6u)/(1))*(1+(1)/(1))+2*(1)*la/(1)+(1-(1)/(1))*lb' 
+ ps='((0.6u)/(1))*(1+2/(1)-(1)/(1))+2*la*(2-(1))/(1)+lb*(1+(1)/(1)-2/(1))' m=1  
m_m10_9 n_5 n_4 gnd! gnd! n l=2.4e-007 w=6e-007 ad='((0.6u)/(1))*(lb*(1-(1)/(1))/2+la*(1)/(1))' as='((0.6u)/(1))*(lb*(1+(1)/(1)-2/(1))/2+la*(2-(1))/(1))' pd='((0.6u)/(1))*(1+(1)/(1))+2*(1)*la/(1)+(1-(1)/(1))*lb' 
+ ps='((0.6u)/(1))*(1+2/(1)-(1)/(1))+2*la*(2-(1))/(1)+lb*(1+(1)/(1)-2/(1))' m=1  
m_m11_10 n_5 port_q_6 gnd! gnd! n l=6e-007 w=6e-007 ad='((0.6u)/(1))*(lb*(1-(1)/(1))/2+la*(1)/(1))' as='((0.6u)/(1))*(lb*(1+(1)/(1)-2/(1))/2+la*(2-(1))/(1))' pd='((0.6u)/(1))*(1+(1)/(1))+2*(1)*la/(1)+(1-(1)/(1))*lb' 
+ ps='((0.6u)/(1))*(1+2/(1)-(1)/(1))+2*la*(2-(1))/(1)+lb*(1+(1)/(1)-2/(1))' m=1  
m_m12_11 port_q_6 n_5 gnd! gnd! n l=2.4e-007 w=2.5e-006 ad='((2.5u)/(1))*(lb*(1-(1)/(1))/2+la*(1)/(1))' as='((2.5u)/(1))*(lb*(1+(1)/(1)-2/(1))/2+la*(2-(1))/(1))' pd='((2.5u)/(1))*(1+(1)/(1))+2*(1)*la/(1)+(1-(1)/(1))*lb' 
+ ps='((2.5u)/(1))*(1+2/(1)-(1)/(1))+2*la*(2-(1))/(1)+lb*(1+(1)/(1)-2/(1))' m=1  
.ends

.subckt crev_l012 port_q_0 port_r_5 port_c_6 port_m_1 port_p_2 port_po_3 
x_dd1 port_q_0 n_4 port_po_3 port_m_1 port_p_2 sum_l013 
x_dd2 port_c_6 n_4 port_q_0 port_r_5 dtr1_l016 
.ends

.subckt sum_l013 port_a_1 port_s_11 port_c_10 port_b_0 port_p_6 
x_dd5 n_8 n_5 port_p_6 and2_l01 
x_dd2 port_a_1 port_b_0 n_2 or2_l014 
x_dd6 n_5 port_p_6 n_7 or2_l014 
x_dd1 n_3 port_a_1 port_b_0 and2_l01 
x_dd7 n_8 n_9 not_l015 
x_dd3 n_3 n_4 not_l015 
x_dd4 n_4 n_2 n_5 or2_l014 
x_dd8 port_c_10 n_3 n_8 and2_l01 
x_dd9 n_9 n_7 port_s_11 or2_l014 
.ends

.subckt or2_l014 port_x2_1 port_x1_5 port_q_3 
m_m1_0 n_4 port_x2_1 g_vdl! g_vdl! p l=2.4e-007 w=2.7e-006 ad='((2.7u)/(1))*(lb*(1-(1)/(1))/2+la*(1)/(1))' as='((2.7u)/(1))*(lb*(1+(1)/(1)-2/(1))/2+la*(2-(1))/(1))' pd='((2.7u)/(1))*(1+(1)/(1))+2*(1)*la/(1)+(1-(1)/(1))*lb' 
+ ps='((2.7u)/(1))*(1+2/(1)-(1)/(1))+2*la*(2-(1))/(1)+lb*(1+(1)/(1)-2/(1))' m=1  
m_m2_1 port_q_3 port_x1_5 n_4 g_vdl! p l=2.4e-007 w=2.7e-006 ad='((2.7u)/(1))*(lb*(1-(1)/(1))/2+la*(1)/(1))' as='((2.7u)/(1))*(lb*(1+(1)/(1)-2/(1))/2+la*(2-(1))/(1))' pd='((2.7u)/(1))*(1+(1)/(1))+2*(1)*la/(1)+(1-(1)/(1))*lb' 
+ ps='((2.7u)/(1))*(1+2/(1)-(1)/(1))+2*la*(2-(1))/(1)+lb*(1+(1)/(1)-2/(1))' m=1  
m_m3_2 port_q_3 port_x2_1 gnd! gnd! n l=2.4e-007 w=6e-007 ad='((0.6u)/(1))*(lb*(1-(1)/(1))/2+la*(1)/(1))' as='((0.6u)/(1))*(lb*(1+(1)/(1)-2/(1))/2+la*(2-(1))/(1))' pd='((0.6u)/(1))*(1+(1)/(1))+2*(1)*la/(1)+(1-(1)/(1))*lb' 
+ ps='((0.6u)/(1))*(1+2/(1)-(1)/(1))+2*la*(2-(1))/(1)+lb*(1+(1)/(1)-2/(1))' m=1  
m_m4_3 port_q_3 port_x1_5 gnd! gnd! n l=2.4e-007 w=6e-007 ad='((0.6u)/(1))*(lb*(1-(1)/(1))/2+la*(1)/(1))' as='((0.6u)/(1))*(lb*(1+(1)/(1)-2/(1))/2+la*(2-(1))/(1))' pd='((0.6u)/(1))*(1+(1)/(1))+2*(1)*la/(1)+(1-(1)/(1))*lb' 
+ ps='((0.6u)/(1))*(1+2/(1)-(1)/(1))+2*la*(2-(1))/(1)+lb*(1+(1)/(1)-2/(1))' m=1  
.ends

.subckt not_l015 port_x_0 port_q_2 
m_m1_0 port_q_2 port_x_0 g_vdl! g_vdl! p l=2.4e-007 w=1.5e-006 ad='((1.5u)/(1))*(lb*(1-(1)/(1))/2+la*(1)/(1))' as='((1.5u)/(1))*(lb*(1+(1)/(1)-2/(1))/2+la*(2-(1))/(1))' pd='((1.5u)/(1))*(1+(1)/(1))+2*(1)*la/(1)+(1-(1)/(1))*lb' 
+ ps='((1.5u)/(1))*(1+2/(1)-(1)/(1))+2*la*(2-(1))/(1)+lb*(1+(1)/(1)-2/(1))' m=1  