* add32.sp SPICE FILE

simulator lang=spectre

parameters temper = temp
parameters length=1u width=1u
include "admsbsim3v3_models.mod" 


subckt add (1 2 3 4 5 6 7)
m1 (7 8 1 1) penh L=8e-07 W=3.2e-06
+ AS=1.28e-11 AD=1.28e-11 PS=1.44e-05 PD=1.44e-05
m2 (7 8 2 2) nenh L=8e-07 W=3.2e-06
+ AS=1.28e-11 AD=1.28e-11 PS=1.44e-05 PD=1.44e-05
m3 (9 10 1 1) penh L=8e-07 W=3.2e-06
+ AS=1.28e-11 AD=1.28e-11 PS=1.44e-05 PD=1.44e-05
mXd20 (8 10 2 2) nenh L=8e-07 W=3.2e-06
+ AS=1.28e-11 AD=1.28e-11 PS=1.44e-05 PD=1.44e-05
m4 (2 11 8 2) nenh L=8e-07 W=3.2e-06
+ AS=1.28e-11 AD=1.28e-11 PS=1.44e-05 PD=1.44e-05
m5 (8 11 9 1) penh L=8e-07 W=3.2e-06
+ AS=1.28e-11 AD=1.28e-11 PS=1.44e-05 PD=1.44e-05
m6 (11 12 2 2) nenh L=8e-07 W=3.2e-06
+ AS=1.28e-11 AD=1.28e-11 PS=1.44e-05 PD=1.44e-05
m7 (12 3 13 2) nenh L=8e-07 W=3.2e-06
+ AS=1.28e-11 AD=1.28e-11 PS=1.44e-05 PD=1.44e-05
m8 (13 4 2 2) nenh L=8e-07 W=3.2e-06
+ AS=1.28e-11 AD=1.28e-11 PS=1.44e-05 PD=1.44e-05
m9 (11 12 1 1) penh L=8e-07 W=3.2e-06
+ AS=1.28e-11 AD=1.28e-11 PS=1.44e-05 PD=1.44e-05
mXd9 (1 3 12 1) penh L=8e-07 W=3.2e-06
+ AS=1.28e-11 AD=1.28e-11 PS=1.44e-05 PD=1.44e-05
m10 (12 4 1 1) penh L=8e-07 W=3.2e-06
+ AS=1.28e-11 AD=1.28e-11 PS=1.44e-05 PD=1.44e-05
m11 (10 14 1 1) penh L=8e-07 W=3.2e-06
+ AS=1.28e-11 AD=1.28e-11 PS=1.44e-05 PD=1.44e-05
mXd7 (1 5 14 1) penh L=8e-07 W=3.2e-06
+ AS=1.28e-11 AD=1.28e-11 PS=1.44e-05 PD=1.44e-05
m12 (14 15 1 1) penh L=8e-07 W=3.2e-06
+ AS=1.28e-11 AD=1.28e-11 PS=1.44e-05 PD=1.44e-05
m13 (10 14 2 2) nenh L=8e-07 W=3.2e-06
+ AS=1.28e-11 AD=1.28e-11 PS=1.44e-05 PD=1.44e-05
m14 (16 15 2 2) nenh L=8e-07 W=3.2e-06
+ AS=1.28e-11 AD=1.28e-11 PS=1.44e-05 PD=1.44e-05
m15 (6 17 1 1) penh L=8e-07 W=3.2e-06
+ AS=1.28e-11 AD=1.28e-11 PS=1.44e-05 PD=1.44e-05
m16 (6 17 2 2) nenh L=8e-07 W=3.2e-06
+ AS=1.28e-11 AD=1.28e-11 PS=1.44e-05 PD=1.44e-05
m17 (18 19 1 1) penh L=8e-07 W=3.2e-06
+ AS=1.28e-11 AD=1.28e-11 PS=1.44e-05 PD=1.44e-05
mXd5 (17 19 2 2) nenh L=8e-07 W=3.2e-06
+ AS=1.28e-11 AD=1.28e-11 PS=1.44e-05 PD=1.44e-05
m18 (2 20 17 2) nenh L=8e-07 W=3.2e-06
+ AS=1.28e-11 AD=1.28e-11 PS=1.44e-05 PD=1.44e-05
mXd6 (17 20 18 1) penh L=8e-07 W=3.2e-06
+ AS=1.28e-11 AD=1.28e-11 PS=1.44e-05 PD=1.44e-05
m19 (21 5 1 1) penh L=8e-07 W=3.2e-06
+ AS=1.28e-11 AD=1.28e-11 PS=1.44e-05 PD=1.44e-05
m20 (19 22 1 1) penh L=8e-07 W=3.2e-06
+ AS=1.28e-11 AD=1.28e-11 PS=1.44e-05 PD=1.44e-05
mXd3 (1 15 22 1) penh L=8e-07 W=3.2e-06
+ AS=1.28e-11 AD=1.28e-11 PS=1.44e-05 PD=1.44e-05
m21 (22 21 1 1) penh L=8e-07 W=3.2e-06
+ AS=1.28e-11 AD=1.28e-11 PS=1.44e-05 PD=1.44e-05
m22 (19 22 2 2) nenh L=8e-07 W=3.2e-06
+ AS=1.28e-11 AD=1.28e-11 PS=1.44e-05 PD=1.44e-05
m23 (22 15 23 2) nenh L=8e-07 W=3.2e-06
+ AS=1.28e-11 AD=1.28e-11 PS=1.44e-05 PD=1.44e-05
m24 (23 21 2 2) nenh L=8e-07 W=3.2e-06
+ AS=1.28e-11 AD=1.28e-11 PS=1.44e-05 PD=1.44e-05
m25 (21 5 2 2) nenh L=8e-07 W=3.2e-06
+ AS=1.28e-11 AD=1.28e-11 PS=1.44e-05 PD=1.44e-05
m26 (24 15 1 1) penh L=8e-07 W=3.2e-06
+ AS=1.28e-11 AD=1.28e-11 PS=1.44e-05 PD=1.44e-05
m27 (20 25 1 1) penh L=8e-07 W=3.2e-06
+ AS=1.28e-11 AD=1.28e-11 PS=1.44e-05 PD=1.44e-05
mXd4 (1 5 25 1) penh L=8e-07 W=3.2e-06
+ AS=1.28e-11 AD=1.28e-11 PS=1.44e-05 PD=1.44e-05
m28 (25 24 1 1) penh L=8e-07 W=3.2e-06
+ AS=1.28e-11 AD=1.28e-11 PS=1.44e-05 PD=1.44e-05
m29 (20 25 2 2) nenh L=8e-07 W=3.2e-06
+ AS=1.28e-11 AD=1.28e-11 PS=1.44e-05 PD=1.44e-05
m30 (25 5 26 2) nenh L=8e-07 W=3.2e-06
+ AS=1.28e-11 AD=1.28e-11 PS=1.44e-05 PD=1.44e-05
m31 (26 24 2 2) nenh L=8e-07 W=3.2e-06
+ AS=1.28e-11 AD=1.28e-11 PS=1.44e-05 PD=1.44e-05
m32 (24 15 2 2) nenh L=8e-07 W=3.2e-06
+ AS=1.28e-11 AD=1.28e-11 PS=1.44e-05 PD=1.44e-05
m33 (27 4 1 1) penh L=8e-07 W=3.2e-06
+ AS=1.28e-11 AD=1.28e-11 PS=1.44e-05 PD=1.44e-05
mXd1 (1 3 28 1) penh L=8e-07 W=3.2e-06
+ AS=1.28e-11 AD=1.28e-11 PS=1.44e-05 PD=1.44e-05
m34 (28 27 1 1) penh L=8e-07 W=3.2e-06
+ AS=1.28e-11 AD=1.28e-11 PS=1.44e-05 PD=1.44e-05
m35 (29 28 2 2) nenh L=8e-07 W=3.2e-06
+ AS=1.28e-11 AD=1.28e-11 PS=1.44e-05 PD=1.44e-05
m36 (28 3 30 2) nenh L=8e-07 W=3.2e-06
+ AS=1.28e-11 AD=1.28e-11 PS=1.44e-05 PD=1.44e-05
m37 (27 4 2 2) nenh L=8e-07 W=3.2e-06
+ AS=1.28e-11 AD=1.28e-11 PS=1.44e-05 PD=1.44e-05
mXd28 (15 31 1 1) penh L=8e-07 W=3.2e-06
+ AS=1.28e-11 AD=1.28e-11 PS=1.44e-05 PD=1.44e-05
mXd27 (15 31 2 2) nenh L=8e-07 W=3.2e-06
+ AS=1.28e-11 AD=1.28e-11 PS=1.44e-05 PD=1.44e-05
mXd26 (32 29 1 1) penh L=8e-07 W=3.2e-06
+ AS=1.28e-11 AD=1.28e-11 PS=1.44e-05 PD=1.44e-05
mXd25 (31 29 2 2) nenh L=8e-07 W=3.2e-06
+ AS=1.28e-11 AD=1.28e-11 PS=1.44e-05 PD=1.44e-05
mXd23 (2 33 31 2) nenh L=8e-07 W=3.2e-06
+ AS=1.28e-11 AD=1.28e-11 PS=1.44e-05 PD=1.44e-05
mXd19 (31 33 32 1) penh L=8e-07 W=3.2e-06
+ AS=1.28e-11 AD=1.28e-11 PS=1.44e-05 PD=1.44e-05
mXd18 (33 34 2 2) nenh L=8e-07 W=3.2e-06
+ AS=1.28e-11 AD=1.28e-11 PS=1.44e-05 PD=1.44e-05
mXd17 (34 4 35 2) nenh L=8e-07 W=3.2e-06
+ AS=1.28e-11 AD=1.28e-11 PS=1.44e-05 PD=1.44e-05
mXd16 (35 36 2 2) nenh L=8e-07 W=3.2e-06
+ AS=1.28e-11 AD=1.28e-11 PS=1.44e-05 PD=1.44e-05
mXd15 (36 3 2 2) nenh L=8e-07 W=3.2e-06
+ AS=1.28e-11 AD=1.28e-11 PS=1.44e-05 PD=1.44e-05
mXd14 (33 34 1 1) penh L=8e-07 W=3.2e-06
+ AS=1.28e-11 AD=1.28e-11 PS=1.44e-05 PD=1.44e-05
mXd13 (1 4 34 1) penh L=8e-07 W=3.2e-06
+ AS=1.28e-11 AD=1.28e-11 PS=1.44e-05 PD=1.44e-05
mXd12 (34 36 1 1) penh L=8e-07 W=3.2e-06
+ AS=1.28e-11 AD=1.28e-11 PS=1.44e-05 PD=1.44e-05
mXd11 (36 3 1 1) penh L=8e-07 W=3.2e-06
+ AS=1.28e-11 AD=1.28e-11 PS=1.44e-05 PD=1.44e-05
mXd8 (29 28 1 1) penh L=8e-07 W=3.2e-06
+ AS=1.28e-11 AD=1.28e-11 PS=1.44e-05 PD=1.44e-05
mXd2 (30 27 2 2) nenh L=8e-07 W=3.2e-06
+ AS=1.28e-11 AD=1.28e-11 PS=1.44e-05 PD=1.44e-05
mXd10 (14 5 16 2) nenh L=8e-07 W=3.2e-06
+ AS=1.28e-11 AD=1.28e-11 PS=1.44e-05 PD=1.44e-05
csum (6 2) capacitor c=3.46e-15
cb (4 2) capacitor c=2.611e-14
ca (3 2) capacitor c=2.534e-14
ccout (7 2) capacitor c=4.99e-15
cc (5 2) capacitor c=2.304e-14
cI0 (8 2) capacitor c=3.84e-15
cI2 (11 2) capacitor c=3.46e-15
cI3 (12 2) capacitor c=3.84e-15
cI5 (10 2) capacitor c=4.99e-15
cI6 (14 2) capacitor c=4.61e-15
cI8 (28 2) capacitor c=3.84e-15
cI9 (17 2) capacitor c=3.84e-15
cI11 (19 2) capacitor c=5.38e-15
cI12 (22 2) capacitor c=4.61e-15
cI13 (15 2) capacitor c=1.114e-14
cI14 (21 2) capacitor c=5.38e-15
cI16 (20 2) capacitor c=5.57e-15
cI17 (25 2) capacitor c=4.61e-15
cI18 (24 2) capacitor c=6.14e-15
cI20 (27 2) capacitor c=5.38e-15
cI22 (31 2) capacitor c=3.84e-15
cI23 (29 2) capacitor c=5.38e-15
cI25 (33 2) capacitor c=3.46e-15
cI26 (34 2) capacitor c=3.84e-15
cI28 (36 2) capacitor c=3.07e-15
ends add

simulator lang=spice

xaddX1 1 0 3 4 5
+ 6 7 add
xaddX2 1 0 37 38 7
+ 39 40 add
xaddX3 1 0 70 71 40
+ 72 73 add
xaddX4 1 0 103 104 73
+ 105 106 add
xaddX5 1 0 136 137 106
+ 138 139 add
xaddX6 1 0 169 170 139
+ 171 172 add
xaddX7 1 0 202 203 172
+ 204 205 add
xaddX8 1 0 235 236 205
+ 237 238 add
xaddX9 1 0 268 269 238
+ 270 271 add
xaddX10 1 0 301 302 271
+ 303 304 add
xaddX11 1 0 334 335 304
+ 336 337 add
xaddX12 1 0 367 368 337
+ 369 370 add
xaddX13 1 0 400 401 370
+ 402 403 add
xaddX14 1 0 433 434 403
+ 435 436 add
xaddX15 1 0 466 467 436
+ 468 469 add
xaddX16 1 0 499 500 469
+ 501 502 add
xaddY1 1 0 532 533 502
+ 534 535 add
xaddY2 1 0 565 566 535
+ 567 568 add
xaddY3 1 0 598 599 568
+ 600 601 add
xaddY4 1 0 631 632 601
+ 633 634 add
xaddY5 1 0 664 665 634
+ 666 667 add
xaddY6 1 0 697 698 667
+ 699 700 add
xaddY7 1 0 730 731 700
+ 732 733 add
xaddY8 1 0 763 764 733
+ 765 766 add
xaddY9 1 0 796 797 766
+ 798 799 add
xaddY10 1 0 829 830 799
+ 831 832 add
xaddY11 1 0 862 863 832
+ 864 865 add
xaddY12 1 0 895 896 865
+ 897 898 add
xaddY13 1 0 928 929 898
+ 930 931 add
xaddY14 1 0 961 962 931
+ 963 964 add
xaddY15 1 0 994 995 964
+ 996 997 add
xaddY16 1 0 1027 1028 997
+ 1029 1030 add
Va1 3 0 pwl (0 0 2e-08 0 2.1e-08 1.2 4e-08 1.2
+ 4.1e-08 0 5e-08 0 5.1e-08 1.2 7e-08 1.2
+ 7.1e-08 0 8e-08 0 8.1e-08 1.2 9e-08 1.2
+ 9.1e-08 0 1.1e-07 0 1.11e-07 1.2 1.2e-07 1.2
+ 1.21e-07 0 1.7e-07 0 1.71e-07 1.2 2.4e-07 1.2
+ 2.41e-07 0 2.5e-07 0 2.51e-07 1.2 2.6e-07 1.2
+ 2.61e-07 0 2.9e-07 0 2.91e-07 1.2 3.1e-07 1.2
+ 3.11e-07 0 3.4e-07 0 3.41e-07 1.2 3.6e-07 1.2
+ 3.61e-07 0 3.8e-07 0 3.81e-07 1.2 4.1e-07 1.2
+ 4.11e-07 0 4.2e-07 0 4.21e-07 1.2 4.5e-07 1.2
+ 4.51e-07 0 4.6e-07 0 4.61e-07 1.2 4.7e-07 1.2
+ 4.71e-07 0 5.3e-07 0 5.31e-07 1.2 5.5e-07 1.2
+ 5.51e-07 0 5.8e-07 0 5.81e-07 1.2 5.9e-07 1.2
+ 5.91e-07 0 6e-07 0 6.01e-07 1.2 6.4e-07 1.2
+ 6.41e-07 0 6.9e-07 0 6.91e-07 1.2 7e-07 1.2
+ 7.01e-07 0 7.3e-07 0 7.31e-07 1.2 7.5e-07 1.2
+ 7.51e-07 0 8.1e-07 0 8.11e-07 1.2 8.2e-07 1.2
+ 8.21e-07 0 8.3e-07 0 8.31e-07 1.2 8.5e-07 1.2
+ 8.51e-07 0 8.9e-07 0 8.91e-07 1.2 9e-07 1.2
+ 9.01e-07 0 9.2e-07 0 9.21e-07 1.2 9.3e-07 1.2
+ 9.31e-07 0 9.6e-07 0 9.61e-07 1.2 9.8e-07 1.2
+ 9.81e-07 0 1e-06 0 )
Va2 37 0 pwl (0 1.2 1e-08 1.2 1.1e-08 0 4e-08 0
+ 4.1e-08 1.2 5e-08 1.2 5.1e-08 0 7e-08 0
+ 7.1e-08 1.2 9e-08 1.2 9.1e-08 0 1.1e-07 0
+ 1.11e-07 1.2 1.2e-07 1.2 1.21e-07 0 1.3e-07 0
+ 1.31e-07 1.2 1.4e-07 1.2 1.41e-07 0 1.7e-07 0
+ 1.71e-07 1.2 2.3e-07 1.2 2.31e-07 0 2.4e-07 0
+ 2.41e-07 1.2 2.5e-07 1.2 2.51e-07 0 2.7e-07 0
+ 2.71e-07 1.2 2.8e-07 1.2 2.81e-07 0 2.9e-07 0
+ 2.91e-07 1.2 3e-07 1.2 3.01e-07 0 3.2e-07 0
+ 3.21e-07 1.2 3.3e-07 1.2 3.31e-07 0 3.4e-07 0
+ 3.41e-07 1.2 3.9e-07 1.2 3.91e-07 0 4.2e-07 0
+ 4.21e-07 1.2 4.5e-07 1.2 4.51e-07 0 4.6e-07 0
+ 4.61e-07 1.2 4.9e-07 1.2 4.91e-07 0 5e-07 0
+ 5.01e-07 1.2 5.2e-07 1.2 5.21e-07 0 5.4e-07 0
+ 5.41e-07 1.2 5.5e-07 1.2 5.51e-07 0 5.6e-07 0
+ 5.61e-07 1.2 5.9e-07 1.2 5.91e-07 0 6.2e-07 0
+ 6.21e-07 1.2 6.3e-07 1.2 6.31e-07 0 6.6e-07 0
+ 6.61e-07 1.2 6.8e-07 1.2 6.81e-07 0 7e-07 0
+ 7.01e-07 1.2 7.1e-07 1.2 7.11e-07 0 7.4e-07 0
+ 7.41e-07 1.2 7.6e-07 1.2 7.61e-07 0 7.7e-07 0
+ 7.71e-07 1.2 7.8e-07 1.2 7.81e-07 0 8.1e-07 0
+ 8.11e-07 1.2 8.2e-07 1.2 8.21e-07 0 8.3e-07 0
+ 8.31e-07 1.2 8.4e-07 1.2 8.41e-07 0 8.6e-07 0
+ 8.61e-07 1.2 8.7e-07 1.2 8.71e-07 0 8.9e-07 0
+ 8.91e-07 1.2 9e-07 1.2 9.01e-07 0 9.1e-07 0
+ 9.11e-07 1.2 9.2e-07 1.2 9.21e-07 0 9.4e-07 0
+ 9.41e-07 1.2 9.5e-07 1.2 9.51e-07 0 9.6e-07 0
+ 9.61e-07 1.2 9.7e-07 1.2 9.71e-07 0 9.8e-07 0
+ 9.81e-07 1.2 1e-06 1.2 1.01e-06 1.2 )
Va3 70 0 pwl (0 1.2 2e-08 1.2 2.1e-08 0 3e-08 0
+ 3.1e-08 1.2 5e-08 1.2 5.1e-08 0 8e-08 0
+ 8.1e-08 1.2 1e-07 1.2 1.01e-07 0 1.1e-07 0
+ 1.11e-07 1.2 1.3e-07 1.2 1.31e-07 0 1.4e-07 0
+ 1.41e-07 1.2 1.5e-07 1.2 1.51e-07 0 1.6e-07 0
+ 1.61e-07 1.2 1.8e-07 1.2 1.81e-07 0 2e-07 0
+ 2.01e-07 1.2 2.1e-07 1.2 2.11e-07 0 2.2e-07 0
+ 2.21e-07 1.2 2.3e-07 1.2 2.31e-07 0 2.6e-07 0
+ 2.61e-07 1.2 2.9e-07 1.2 2.91e-07 0 3.2e-07 0
+ 3.21e-07 1.2 3.3e-07 1.2 3.31e-07 0 3.4e-07 0
+ 3.41e-07 1.2 3.5e-07 1.2 3.51e-07 0 3.6e-07 0
+ 3.61e-07 1.2 3.9e-07 1.2 3.91e-07 0 4.2e-07 0
+ 4.21e-07 1.2 4.3e-07 1.2 4.31e-07 0 4.4e-07 0
+ 4.41e-07 1.2 4.5e-07 1.2 4.51e-07 0 4.7e-07 0
+ 4.71e-07 1.2 4.8e-07 1.2 4.81e-07 0 4.9e-07 0
+ 4.91e-07 1.2 5.4e-07 1.2 5.41e-07 0 5.5e-07 0
+ 5.51e-07 1.2 5.6e-07 1.2 5.61e-07 0 5.7e-07 0
+ 5.71e-07 1.2 5.8e-07 1.2 5.81e-07 0 6e-07 0
+ 6.01e-07 1.2 6.2e-07 1.2 6.21e-07 0 6.3e-07 0
+ 6.31e-07 1.2 6.4e-07 1.2 6.41e-07 0 6.6e-07 0
+ 6.61e-07 1.2 6.7e-07 1.2 6.71e-07 0 6.9e-07 0
+ 6.91e-07 1.2 7e-07 1.2 7.01e-07 0 7.1e-07 0
+ 7.11e-07 1.2 7.5e-07 1.2 7.51e-07 0 7.9e-07 0
+ 7.91e-07 1.2 8.2e-07 1.2 8.21e-07 0 8.3e-07 0
+ 8.31e-07 1.2 8.6e-07 1.2 8.61e-07 0 8.8e-07 0
+ 8.81e-07 1.2 8.9e-07 1.2 8.91e-07 0 9.6e-07 0
+ 9.61e-07 1.2 9.7e-07 1.2 9.71e-07 0 9.8e-07 0
+ 9.81e-07 1.2 9.9e-07 1.2 9.91e-07 0 1e-06 0
+ 1.001e-06 1.2 1.02e-06 1.2 )
Va4 103 0 pwl (0 0 2e-08 0 2.1e-08 1.2 5e-08 1.2
+ 5.1e-08 0 6e-08 0 6.1e-08 1.2 8e-08 1.2
+ 8.1e-08 0 9e-08 0 9.1e-08 1.2 1e-07 1.2
+ 1.01e-07 0 1.3e-07 0 1.31e-07 1.2 1.4e-07 1.2
+ 1.41e-07 0 1.5e-07 0 1.51e-07 1.2 1.7e-07 1.2
+ 1.71e-07 0 1.8e-07 0 1.81e-07 1.2 2e-07 1.2
+ 2.01e-07 0 2.3e-07 0 2.31e-07 1.2 2.4e-07 1.2
+ 2.41e-07 0 2.6e-07 0 2.61e-07 1.2 2.9e-07 1.2
+ 2.91e-07 0 3.2e-07 0 3.21e-07 1.2 3.3e-07 1.2
+ 3.31e-07 0 3.4e-07 0 3.41e-07 1.2 3.6e-07 1.2
+ 3.61e-07 0 3.7e-07 0 3.71e-07 1.2 4e-07 1.2
+ 4.01e-07 0 4.1e-07 0 4.11e-07 1.2 4.2e-07 1.2
+ 4.21e-07 0 4.5e-07 0 4.51e-07 1.2 4.7e-07 1.2
+ 4.71e-07 0 4.9e-07 0 4.91e-07 1.2 5.2e-07 1.2
+ 5.21e-07 0 5.3e-07 0 5.31e-07 1.2 5.4e-07 1.2
+ 5.41e-07 0 5.8e-07 0 5.81e-07 1.2 6e-07 1.2
+ 6.01e-07 0 6.1e-07 0 6.11e-07 1.2 6.3e-07 1.2
+ 6.31e-07 0 6.7e-07 0 6.71e-07 1.2 6.9e-07 1.2
+ 6.91e-07 0 7.1e-07 0 7.11e-07 1.2 7.2e-07 1.2
+ 7.21e-07 0 7.3e-07 0 7.31e-07 1.2 7.4e-07 1.2
+ 7.41e-07 0 7.6e-07 0 7.61e-07 1.2 7.7e-07 1.2
+ 7.71e-07 0 7.9e-07 0 7.91e-07 1.2 8.1e-07 1.2
+ 8.11e-07 0 8.2e-07 0 8.21e-07 1.2 8.4e-07 1.2
+ 8.41e-07 0 8.9e-07 0 8.91e-07 1.2 9e-07 1.2
+ 9.01e-07 0 9.1e-07 0 9.11e-07 1.2 9.3e-07 1.2
+ 9.31e-07 0 9.4e-07 0 9.41e-07 1.2 9.5e-07 1.2
+ 9.51e-07 0 9.7e-07 0 9.71e-07 1.2 9.8e-07 1.2
+ 9.81e-07 0 1e-06 0 1.02e-06 0 )
Va5 136 0 pwl (0 1.2 1e-08 1.2 1.1e-08 0 3e-08 0
+ 3.1e-08 1.2 6e-08 1.2 6.1e-08 0 7e-08 0
+ 7.1e-08 1.2 9e-08 1.2 9.1e-08 0 1e-07 0
+ 1.01e-07 1.2 1.1e-07 1.2 1.11e-07 0 1.2e-07 0
+ 1.21e-07 1.2 1.3e-07 1.2 1.31e-07 0 1.5e-07 0
+ 1.51e-07 1.2 1.8e-07 1.2 1.81e-07 0 1.9e-07 0
+ 1.91e-07 1.2 2e-07 1.2 2.01e-07 0 2.2e-07 0
+ 2.21e-07 1.2 2.3e-07 1.2 2.31e-07 0 2.5e-07 0
+ 2.51e-07 1.2 2.8e-07 1.2 2.81e-07 0 3.2e-07 0
+ 3.21e-07 1.2 3.9e-07 1.2 3.91e-07 0 4.1e-07 0
+ 4.11e-07 1.2 4.2e-07 1.2 4.21e-07 0 4.8e-07 0
+ 4.81e-07 1.2 5.1e-07 1.2 5.11e-07 0 5.3e-07 0
+ 5.31e-07 1.2 5.4e-07 1.2 5.41e-07 0 5.5e-07 0
+ 5.51e-07 1.2 6e-07 1.2 6.01e-07 0 6.1e-07 0
+ 6.11e-07 1.2 6.3e-07 1.2 6.31e-07 0 6.5e-07 0
+ 6.51e-07 1.2 6.7e-07 1.2 6.71e-07 0 6.9e-07 0
+ 6.91e-07 1.2 7e-07 1.2 7.01e-07 0 7.1e-07 0
+ 7.11e-07 1.2 7.2e-07 1.2 7.21e-07 0 7.3e-07 0
+ 7.31e-07 1.2 7.4e-07 1.2 7.41e-07 0 7.5e-07 0
+ 7.51e-07 1.2 7.7e-07 1.2 7.71e-07 0 8.2e-07 0
+ 8.21e-07 1.2 8.7e-07 1.2 8.71e-07 0 8.9e-07 0
+ 8.91e-07 1.2 9e-07 1.2 9.01e-07 0 9.1e-07 0
+ 9.11e-07 1.2 9.2e-07 1.2 9.21e-07 0 9.3e-07 0
+ 9.31e-07 1.2 9.4e-07 1.2 9.41e-07 0 9.5e-07 0
+ 9.51e-07 1.2 9.6e-07 1.2 9.61e-07 0 1e-06 0
+ 1.001e-06 1.2 1.01e-06 1.2 )
Va6 169 0 pwl (0 1.2 3e-08 1.2 3.1e-08 0 5e-08 0
+ 5.1e-08 1.2 8e-08 1.2 8.1e-08 0 1.3e-07 0
+ 1.31e-07 1.2 1.4e-07 1.2 1.41e-07 0 1.5e-07 0
+ 1.51e-07 1.2 1.8e-07 1.2 1.81e-07 0 1.9e-07 0
+ 1.91e-07 1.2 2e-07 1.2 2.01e-07 0 2.1e-07 0
+ 2.11e-07 1.2 2.3e-07 1.2 2.31e-07 0 2.4e-07 0
+ 2.41e-07 1.2 2.7e-07 1.2 2.71e-07 0 3e-07 0
+ 3.01e-07 1.2 3.4e-07 1.2 3.41e-07 0 3.6e-07 0
+ 3.61e-07 1.2 3.7e-07 1.2 3.71e-07 0 3.8e-07 0
+ 3.81e-07 1.2 3.9e-07 1.2 3.91e-07 0 4.1e-07 0
+ 4.11e-07 1.2 4.3e-07 1.2 4.31e-07 0 4.4e-07 0
+ 4.41e-07 1.2 4.7e-07 1.2 4.71e-07 0 4.8e-07 0
+ 4.81e-07 1.2 5e-07 1.2 5.01e-07 0 5.1e-07 0
+ 5.11e-07 1.2 5.9e-07 1.2 5.91e-07 0 6.4e-07 0
+ 6.41e-07 1.2 6.6e-07 1.2 6.61e-07 0 6.7e-07 0
+ 6.71e-07 1.2 6.8e-07 1.2 6.81e-07 0 7e-07 0
+ 7.01e-07 1.2 7.2e-07 1.2 7.21e-07 0 7.4e-07 0
+ 7.41e-07 1.2 7.6e-07 1.2 7.61e-07 0 7.7e-07 0
+ 7.71e-07 1.2 8.4e-07 1.2 8.41e-07 0 8.7e-07 0
+ 8.71e-07 1.2 8.9e-07 1.2 8.91e-07 0 9.1e-07 0
+ 9.11e-07 1.2 9.2e-07 1.2 9.21e-07 0 9.3e-07 0
+ 9.31e-07 1.2 9.6e-07 1.2 9.61e-07 0 9.8e-07 0
+ 9.81e-07 1.2 1e-06 1.2 1.03e-06 1.2 )
Va7 202 0 pwl (0 1.2 3e-08 1.2 3.1e-08 0 4e-08 0
+ 4.1e-08 1.2 6e-08 1.2 6.1e-08 0 7e-08 0
+ 7.1e-08 1.2 8e-08 1.2 8.1e-08 0 9e-08 0
+ 9.1e-08 1.2 1e-07 1.2 1.01e-07 0 1.3e-07 0
+ 1.31e-07 1.2 1.4e-07 1.2 1.41e-07 0 1.6e-07 0
+ 1.61e-07 1.2 1.8e-07 1.2 1.81e-07 0 1.9e-07 0
+ 1.91e-07 1.2 2.7e-07 1.2 2.71e-07 0 2.8e-07 0
+ 2.81e-07 1.2 2.9e-07 1.2 2.91e-07 0 3.2e-07 0
+ 3.21e-07 1.2 3.8e-07 1.2 3.81e-07 0 4.1e-07 0
+ 4.11e-07 1.2 4.2e-07 1.2 4.21e-07 0 4.3e-07 0
+ 4.31e-07 1.2 4.4e-07 1.2 4.41e-07 0 5e-07 0
+ 5.01e-07 1.2 5.1e-07 1.2 5.11e-07 0 5.2e-07 0
+ 5.21e-07 1.2 5.3e-07 1.2 5.31e-07 0 5.6e-07 0
+ 5.61e-07 1.2 5.8e-07 1.2 5.81e-07 0 5.9e-07 0
+ 5.91e-07 1.2 6.3e-07 1.2 6.31e-07 0 6.4e-07 0
+ 6.41e-07 1.2 6.5e-07 1.2 6.51e-07 0 6.6e-07 0
+ 6.61e-07 1.2 6.7e-07 1.2 6.71e-07 0 6.8e-07 0
+ 6.81e-07 1.2 6.9e-07 1.2 6.91e-07 0 7e-07 0
+ 7.01e-07 1.2 7.7e-07 1.2 7.71e-07 0 7.9e-07 0
+ 7.91e-07 1.2 8e-07 1.2 8.01e-07 0 8.2e-07 0
+ 8.21e-07 1.2 8.3e-07 1.2 8.31e-07 0 8.4e-07 0
+ 8.41e-07 1.2 8.6e-07 1.2 8.61e-07 0 8.8e-07 0
+ 8.81e-07 1.2 8.9e-07 1.2 8.91e-07 0 9.2e-07 0
+ 9.21e-07 1.2 9.6e-07 1.2 9.61e-07 0 9.7e-07 0
+ 9.71e-07 1.2 9.9e-07 1.2 9.91e-07 0 1e-06 0
+ 1.001e-06 1.2 )
Va8 235 0 pwl (0 1.2 1e-08 1.2 1.1e-08 0 2e-08 0
+ 2.1e-08 1.2 4e-08 1.2 4.1e-08 0 1.2e-07 0
+ 1.21e-07 1.2 1.4e-07 1.2 1.41e-07 0 1.5e-07 0
+ 1.51e-07 1.2 1.6e-07 1.2 1.61e-07 0 1.7e-07 0
+ 1.71e-07 1.2 2e-07 1.2 2.01e-07 0 2.1e-07 0
+ 2.11e-07 1.2 2.3e-07 1.2 2.31e-07 0 2.5e-07 0
+ 2.51e-07 1.2 2.7e-07 1.2 2.71e-07 0 3e-07 0
+ 3.01e-07 1.2 3.1e-07 1.2 3.11e-07 0 3.4e-07 0
+ 3.41e-07 1.2 3.5e-07 1.2 3.51e-07 0 3.6e-07 0
+ 3.61e-07 1.2 3.7e-07 1.2 3.71e-07 0 3.8e-07 0
+ 3.81e-07 1.2 4.1e-07 1.2 4.11e-07 0 4.2e-07 0
+ 4.21e-07 1.2 4.4e-07 1.2 4.41e-07 0 4.6e-07 0
+ 4.61e-07 1.2 4.7e-07 1.2 4.71e-07 0 4.9e-07 0
+ 4.91e-07 1.2 5e-07 1.2 5.01e-07 0 5.2e-07 0
+ 5.21e-07 1.2 5.3e-07 1.2 5.31e-07 0 5.7e-07 0
+ 5.71e-07 1.2 5.8e-07 1.2 5.81e-07 0 5.9e-07 0
+ 5.91e-07 1.2 6e-07 1.2 6.01e-07 0 6.2e-07 0
+ 6.21e-07 1.2 6.3e-07 1.2 6.31e-07 0 6.4e-07 0
+ 6.41e-07 1.2 6.5e-07 1.2 6.51e-07 0 6.8e-07 0
+ 6.81e-07 1.2 6.9e-07 1.2 6.91e-07 0 7e-07 0
+ 7.01e-07 1.2 7.3e-07 1.2 7.31e-07 0 7.7e-07 0
+ 7.71e-07 1.2 7.8e-07 1.2 7.81e-07 0 8e-07 0
+ 8.01e-07 1.2 8.1e-07 1.2 8.11e-07 0 8.2e-07 0
+ 8.21e-07 1.2 8.3e-07 1.2 8.31e-07 0 8.4e-07 0
+ 8.41e-07 1.2 8.7e-07 1.2 8.71e-07 0 8.8e-07 0
+ 8.81e-07 1.2 9e-07 1.2 9.01e-07 0 9.2e-07 0
+ 9.21e-07 1.2 9.3e-07 1.2 9.31e-07 0 9.4e-07 0
+ 9.41e-07 1.2 9.5e-07 1.2 9.51e-07 0 9.7e-07 0
+ 9.71e-07 1.2 9.8e-07 1.2 9.81e-07 0 9.9e-07 0
+ 9.91e-07 1.2 1e-06 1.2 )
Va9 268 0 pwl (0 0 1e-08 0 1.1e-08 1.2 3e-08 1.2
+ 3.1e-08 0 4e-08 0 4.1e-08 1.2 5e-08 1.2
+ 5.1e-08 0 8e-08 0 8.1e-08 1.2 1.1e-07 1.2
+ 1.11e-07 0 1.3e-07 0 1.31e-07 1.2 1.4e-07 1.2
+ 1.41e-07 0 1.5e-07 0 1.51e-07 1.2 2.2e-07 1.2
+ 2.21e-07 0 2.3e-07 0 2.31e-07 1.2 2.4e-07 1.2
+ 2.41e-07 0 2.6e-07 0 2.61e-07 1.2 2.7e-07 1.2
+ 2.71e-07 0 3e-07 0 3.01e-07 1.2 3.1e-07 1.2
+ 3.11e-07 0 3.2e-07 0 3.21e-07 1.2 3.3e-07 1.2
+ 3.31e-07 0 3.4e-07 0 3.41e-07 1.2 3.6e-07 1.2
+ 3.61e-07 0 3.7e-07 0 3.71e-07 1.2 3.8e-07 1.2
+ 3.81e-07 0 4e-07 0 4.01e-07 1.2 4.2e-07 1.2
+ 4.21e-07 0 4.4e-07 0 4.41e-07 1.2 4.8e-07 1.2
+ 4.81e-07 0 5e-07 0 5.01e-07 1.2 5.1e-07 1.2
+ 5.11e-07 0 5.4e-07 0 5.41e-07 1.2 5.5e-07 1.2
+ 5.51e-07 0 5.7e-07 0 5.71e-07 1.2 5.8e-07 1.2
+ 5.81e-07 0 6e-07 0 6.01e-07 1.2 6.1e-07 1.2
+ 6.11e-07 0 6.5e-07 0 6.51e-07 1.2 6.6e-07 1.2
+ 6.61e-07 0 6.9e-07 0 6.91e-07 1.2 7e-07 1.2
+ 7.01e-07 0 7.1e-07 0 7.11e-07 1.2 7.3e-07 1.2
+ 7.31e-07 0 7.5e-07 0 7.51e-07 1.2 7.6e-07 1.2
+ 7.61e-07 0 8.3e-07 0 8.31e-07 1.2 8.4e-07 1.2
+ 8.41e-07 0 8.5e-07 0 8.51e-07 1.2 8.6e-07 1.2
+ 8.61e-07 0 8.9e-07 0 8.91e-07 1.2 9.3e-07 1.2
+ 9.31e-07 0 9.4e-07 0 9.41e-07 1.2 9.6e-07 1.2
+ 9.61e-07 0 9.7e-07 0 9.71e-07 1.2 9.9e-07 1.2
+ 9.91e-07 0 1e-06 0 1.01e-06 0 )
Va10 301 0 pwl (0 0 1e-08 0 1.1e-08 1.2 2e-08 1.2
+ 2.1e-08 0 3e-08 0 3.1e-08 1.2 4e-08 1.2
+ 4.1e-08 0 5e-08 0 5.1e-08 1.2 7e-08 1.2
+ 7.1e-08 0 8e-08 0 8.1e-08 1.2 9e-08 1.2
+ 9.1e-08 0 1.2e-07 0 1.21e-07 1.2 1.3e-07 1.2
+ 1.31e-07 0 1.4e-07 0 1.41e-07 1.2 1.6e-07 1.2
+ 1.61e-07 0 2e-07 0 2.01e-07 1.2 2.1e-07 1.2
+ 2.11e-07 0 2.3e-07 0 2.31e-07 1.2 2.4e-07 1.2
+ 2.41e-07 0 2.7e-07 0 2.71e-07 1.2 3.1e-07 1.2
+ 3.11e-07 0 3.2e-07 0 3.21e-07 1.2 3.3e-07 1.2
+ 3.31e-07 0 3.4e-07 0 3.41e-07 1.2 3.6e-07 1.2
+ 3.61e-07 0 3.8e-07 0 3.81e-07 1.2 3.9e-07 1.2
+ 3.91e-07 0 4e-07 0 4.01e-07 1.2 4.2e-07 1.2
+ 4.21e-07 0 4.3e-07 0 4.31e-07 1.2 4.4e-07 1.2
+ 4.41e-07 0 4.6e-07 0 4.61e-07 1.2 4.7e-07 1.2
+ 4.71e-07 0 4.9e-07 0 4.91e-07 1.2 5.3e-07 1.2
+ 5.31e-07 0 5.4e-07 0 5.41e-07 1.2 5.7e-07 1.2
+ 5.71e-07 0 5.9e-07 0 5.91e-07 1.2 6e-07 1.2
+ 6.01e-07 0 6.1e-07 0 6.11e-07 1.2 6.8e-07 1.2
+ 6.81e-07 0 7e-07 0 7.01e-07 1.2 7.2e-07 1.2
+ 7.21e-07 0 7.3e-07 0 7.31e-07 1.2 7.4e-07 1.2
+ 7.41e-07 0 7.8e-07 0 7.81e-07 1.2 7.9e-07 1.2
+ 7.91e-07 0 8.2e-07 0 8.21e-07 1.2 8.3e-07 1.2
+ 8.31e-07 0 8.6e-07 0 8.61e-07 1.2 8.9e-07 1.2
+ 8.91e-07 0 9.1e-07 0 9.11e-07 1.2 9.6e-07 1.2
+ 9.61e-07 0 1e-06 0 1.01e-06 0 )
Va11 334 0 pwl (0 0 1e-08 0 1.1e-08 1.2 2e-08 1.2
+ 2.1e-08 0 3e-08 0 3.1e-08 1.2 7e-08 1.2
+ 7.1e-08 0 8e-08 0 8.1e-08 1.2 1.2e-07 1.2
+ 1.21e-07 0 1.4e-07 0 1.41e-07 1.2 1.6e-07 1.2
+ 1.61e-07 0 1.9e-07 0 1.91e-07 1.2 2e-07 1.2
+ 2.01e-07 0 2.1e-07 0 2.11e-07 1.2 3.1e-07 1.2
+ 3.11e-07 0 3.3e-07 0 3.31e-07 1.2 3.5e-07 1.2
+ 3.51e-07 0 4e-07 0 4.01e-07 1.2 4.1e-07 1.2
+ 4.11e-07 0 4.2e-07 0 4.21e-07 1.2 4.3e-07 1.2
+ 4.31e-07 0 4.4e-07 0 4.41e-07 1.2 4.7e-07 1.2
+ 4.71e-07 0 5.1e-07 0 5.11e-07 1.2 5.2e-07 1.2
+ 5.21e-07 0 5.3e-07 0 5.31e-07 1.2 5.4e-07 1.2
+ 5.41e-07 0 5.5e-07 0 5.51e-07 1.2 5.6e-07 1.2
+ 5.61e-07 0 5.8e-07 0 5.81e-07 1.2 6.1e-07 1.2
+ 6.11e-07 0 6.2e-07 0 6.21e-07 1.2 6.3e-07 1.2
+ 6.31e-07 0 6.7e-07 0 6.71e-07 1.2 7.2e-07 1.2
+ 7.21e-07 0 7.5e-07 0 7.51e-07 1.2 7.6e-07 1.2
+ 7.61e-07 0 7.7e-07 0 7.71e-07 1.2 7.9e-07 1.2
+ 7.91e-07 0 8e-07 0 8.01e-07 1.2 8.1e-07 1.2
+ 8.11e-07 0 8.4e-07 0 8.41e-07 1.2 8.7e-07 1.2
+ 8.71e-07 0 8.8e-07 0 8.81e-07 1.2 8.9e-07 1.2
+ 8.91e-07 0 9e-07 0 9.01e-07 1.2 9.2e-07 1.2
+ 9.21e-07 0 9.3e-07 0 9.31e-07 1.2 9.4e-07 1.2
+ 9.41e-07 0 9.5e-07 0 9.51e-07 1.2 9.8e-07 1.2
+ 9.81e-07 0 1e-06 0 )
Va12 367 0 pwl (0 1.2 1e-08 1.2 1.1e-08 0 2e-08 0
+ 2.1e-08 1.2 5e-08 1.2 5.1e-08 0 8e-08 0
+ 8.1e-08 1.2 1e-07 1.2 1.01e-07 0 1.5e-07 0
+ 1.51e-07 1.2 1.6e-07 1.2 1.61e-07 0 1.9e-07 0
+ 1.91e-07 1.2 2.1e-07 1.2 2.11e-07 0 2.2e-07 0
+ 2.21e-07 1.2 2.3e-07 1.2 2.31e-07 0 2.6e-07 0
+ 2.61e-07 1.2 2.7e-07 1.2 2.71e-07 0 2.8e-07 0
+ 2.81e-07 1.2 3.4e-07 1.2 3.41e-07 0 3.8e-07 0
+ 3.81e-07 1.2 4.1e-07 1.2 4.11e-07 0 4.4e-07 0
+ 4.41e-07 1.2 4.8e-07 1.2 4.81e-07 0 4.9e-07 0
+ 4.91e-07 1.2 5.2e-07 1.2 5.21e-07 0 5.4e-07 0
+ 5.41e-07 1.2 5.5e-07 1.2 5.51e-07 0 5.8e-07 0
+ 5.81e-07 1.2 5.9e-07 1.2 5.91e-07 0 6.1e-07 0
+ 6.11e-07 1.2 6.2e-07 1.2 6.21e-07 0 6.3e-07 0
+ 6.31e-07 1.2 6.4e-07 1.2 6.41e-07 0 6.5e-07 0
+ 6.51e-07 1.2 6.6e-07 1.2 6.61e-07 0 6.9e-07 0
+ 6.91e-07 1.2 7e-07 1.2 7.01e-07 0 7.1e-07 0
+ 7.11e-07 1.2 7.3e-07 1.2 7.31e-07 0 7.6e-07 0
+ 7.61e-07 1.2 8e-07 1.2 8.01e-07 0 8.2e-07 0
+ 8.21e-07 1.2 8.9e-07 1.2 8.91e-07 0 9e-07 0
+ 9.01e-07 1.2 9.1e-07 1.2 9.11e-07 0 9.2e-07 0
+ 9.21e-07 1.2 9.5e-07 1.2 9.51e-07 0 9.7e-07 0
+ 9.71e-07 1.2 9.8e-07 1.2 9.81e-07 0 9.9e-07 0
+ 9.91e-07 1.2 1e-06 1.2 )
Va13 400 0 pwl (0 0 3e-08 0 3.1e-08 1.2 4e-08 1.2
+ 4.1e-08 0 5e-08 0 5.1e-08 1.2 6e-08 1.2
+ 6.1e-08 0 7e-08 0 7.1e-08 1.2 1e-07 1.2
+ 1.01e-07 0 1.1e-07 0 1.11e-07 1.2 1.2e-07 1.2
+ 1.21e-07 0 1.5e-07 0 1.51e-07 1.2 1.7e-07 1.2
+ 1.71e-07 0 1.8e-07 0 1.81e-07 1.2 1.9e-07 1.2
+ 1.91e-07 0 2.6e-07 0 2.61e-07 1.2 2.7e-07 1.2
+ 2.71e-07 0 2.8e-07 0 2.81e-07 1.2 2.9e-07 1.2
+ 2.91e-07 0 4e-07 0 4.01e-07 1.2 4.1e-07 1.2
+ 4.11e-07 0 4.2e-07 0 4.21e-07 1.2 4.6e-07 1.2
+ 4.61e-07 0 4.7e-07 0 4.71e-07 1.2 4.8e-07 1.2
+ 4.81e-07 0 5e-07 0 5.01e-07 1.2 5.2e-07 1.2
+ 5.21e-07 0 5.3e-07 0 5.31e-07 1.2 5.4e-07 1.2
+ 5.41e-07 0 5.5e-07 0 5.51e-07 1.2 5.6e-07 1.2
+ 5.61e-07 0 5.9e-07 0 5.91e-07 1.2 6e-07 1.2
+ 6.01e-07 0 6.2e-07 0 6.21e-07 1.2 6.6e-07 1.2
+ 6.61e-07 0 6.8e-07 0 6.81e-07 1.2 7e-07 1.2
+ 7.01e-07 0 7.3e-07 0 7.31e-07 1.2 7.5e-07 1.2
+ 7.51e-07 0 7.7e-07 0 7.71e-07 1.2 7.8e-07 1.2
+ 7.81e-07 0 8.1e-07 0 8.11e-07 1.2 8.3e-07 1.2
+ 8.31e-07 0 8.4e-07 0 8.41e-07 1.2 8.5e-07 1.2
+ 8.51e-07 0 8.7e-07 0 8.71e-07 1.2 8.8e-07 1.2
+ 8.81e-07 0 9e-07 0 9.01e-07 1.2 9.1e-07 1.2
+ 9.11e-07 0 9.3e-07 0 9.31e-07 1.2 9.5e-07 1.2
+ 9.51e-07 0 1e-06 0 1.03e-06 0 )
Va14 433 0 pwl (0 0 1e-08 0 1.1e-08 1.2 3e-08 1.2
+ 3.1e-08 0 4e-08 0 4.1e-08 1.2 7e-08 1.2
+ 7.1e-08 0 1e-07 0 1.01e-07 1.2 1.2e-07 1.2
+ 1.21e-07 0 1.4e-07 0 1.41e-07 1.2 1.6e-07 1.2
+ 1.61e-07 0 2.1e-07 0 2.11e-07 1.2 2.2e-07 1.2
+ 2.21e-07 0 2.4e-07 0 2.41e-07 1.2 2.5e-07 1.2
+ 2.51e-07 0 2.6e-07 0 2.61e-07 1.2 2.8e-07 1.2
+ 2.81e-07 0 2.9e-07 0 2.91e-07 1.2 3e-07 1.2
+ 3.01e-07 0 3.4e-07 0 3.41e-07 1.2 3.6e-07 1.2
+ 3.61e-07 0 3.8e-07 0 3.81e-07 1.2 4e-07 1.2
+ 4.01e-07 0 4.2e-07 0 4.21e-07 1.2 4.3e-07 1.2
+ 4.31e-07 0 4.5e-07 0 4.51e-07 1.2 4.7e-07 1.2
+ 4.71e-07 0 4.8e-07 0 4.81e-07 1.2 4.9e-07 1.2
+ 4.91e-07 0 5.1e-07 0 5.11e-07 1.2 5.2e-07 1.2
+ 5.21e-07 0 5.3e-07 0 5.31e-07 1.2 5.4e-07 1.2
+ 5.41e-07 0 5.7e-07 0 5.71e-07 1.2 5.8e-07 1.2
+ 5.81e-07 0 6e-07 0 6.01e-07 1.2 6.1e-07 1.2
+ 6.11e-07 0 6.5e-07 0 6.51e-07 1.2 6.6e-07 1.2
+ 6.61e-07 0 6.9e-07 0 6.91e-07 1.2 7.1e-07 1.2
+ 7.11e-07 0 7.3e-07 0 7.31e-07 1.2 7.4e-07 1.2
+ 7.41e-07 0 7.6e-07 0 7.61e-07 1.2 7.7e-07 1.2
+ 7.71e-07 0 8.1e-07 0 8.11e-07 1.2 8.2e-07 1.2
+ 8.21e-07 0 8.4e-07 0 8.41e-07 1.2 8.5e-07 1.2
+ 8.51e-07 0 8.6e-07 0 8.61e-07 1.2 8.7e-07 1.2
+ 8.71e-07 0 8.8e-07 0 8.81e-07 1.2 9.1e-07 1.2
+ 9.11e-07 0 9.4e-07 0 9.41e-07 1.2 9.5e-07 1.2
+ 9.51e-07 0 9.7e-07 0 9.71e-07 1.2 9.8e-07 1.2
+ 9.81e-07 0 1e-06 0 1.01e-06 0 )
Va15 466 0 pwl (0 0 1e-08 0 1.1e-08 1.2 2e-08 1.2
+ 2.1e-08 0 3e-08 0 3.1e-08 1.2 4e-08 1.2
+ 4.1e-08 0 8e-08 0 8.1e-08 1.2 9e-08 1.2
+ 9.1e-08 0 1e-07 0 1.01e-07 1.2 1.2e-07 1.2
+ 1.21e-07 0 1.3e-07 0 1.31e-07 1.2 1.5e-07 1.2
+ 1.51e-07 0 1.7e-07 0 1.71e-07 1.2 1.8e-07 1.2
+ 1.81e-07 0 2.1e-07 0 2.11e-07 1.2 2.2e-07 1.2
+ 2.21e-07 0 2.4e-07 0 2.41e-07 1.2 2.5e-07 1.2
+ 2.51e-07 0 2.8e-07 0 2.81e-07 1.2 3e-07 1.2
+ 3.01e-07 0 3.1e-07 0 3.11e-07 1.2 3.3e-07 1.2
+ 3.31e-07 0 3.4e-07 0 3.41e-07 1.2 3.5e-07 1.2
+ 3.51e-07 0 3.8e-07 0 3.81e-07 1.2 4.1e-07 1.2
+ 4.11e-07 0 4.2e-07 0 4.21e-07 1.2 4.4e-07 1.2
+ 4.41e-07 0 4.7e-07 0 4.71e-07 1.2 4.8e-07 1.2
+ 4.81e-07 0 5e-07 0 5.01e-07 1.2 5.1e-07 1.2
+ 5.11e-07 0 5.2e-07 0 5.21e-07 1.2 5.5e-07 1.2
+ 5.51e-07 0 6e-07 0 6.01e-07 1.2 6.6e-07 1.2
+ 6.61e-07 0 7.2e-07 0 7.21e-07 1.2 7.4e-07 1.2
+ 7.41e-07 0 7.6e-07 0 7.61e-07 1.2 7.7e-07 1.2
+ 7.71e-07 0 8.1e-07 0 8.11e-07 1.2 8.2e-07 1.2
+ 8.21e-07 0 8.3e-07 0 8.31e-07 1.2 8.4e-07 1.2
+ 8.41e-07 0 8.5e-07 0 8.51e-07 1.2 8.7e-07 1.2
+ 8.71e-07 0 8.8e-07 0 8.81e-07 1.2 9e-07 1.2
+ 9.01e-07 0 9.1e-07 0 9.11e-07 1.2 9.2e-07 1.2
+ 9.21e-07 0 9.3e-07 0 9.31e-07 1.2 9.6e-07 1.2
+ 9.61e-07 0 9.7e-07 0 9.71e-07 1.2 1e-06 1.2
+ 1.001e-06 0 1.01e-06 0 )
Va16 499 0 pwl (0 1.2 2e-08 1.2 2.1e-08 0 3e-08 0
+ 3.1e-08 1.2 4e-08 1.2 4.1e-08 0 6e-08 0
+ 6.1e-08 1.2 8e-08 1.2 8.1e-08 0 1.1e-07 0
+ 1.11e-07 1.2 1.6e-07 1.2 1.61e-07 0 1.7e-07 0
+ 1.71e-07 1.2 1.8e-07 1.2 1.81e-07 0 2e-07 0
+ 2.01e-07 1.2 2.2e-07 1.2 2.21e-07 0 2.3e-07 0
+ 2.31e-07 1.2 2.4e-07 1.2 2.41e-07 0 2.8e-07 0
+ 2.81e-07 1.2 2.9e-07 1.2 2.91e-07 0 3.3e-07 0
+ 3.31e-07 1.2 3.4e-07 1.2 3.41e-07 0 3.5e-07 0
+ 3.51e-07 1.2 3.6e-07 1.2 3.61e-07 0 3.7e-07 0
+ 3.71e-07 1.2 4e-07 1.2 4.01e-07 0 4.3e-07 0
+ 4.31e-07 1.2 4.7e-07 1.2 4.71e-07 0 5.1e-07 0
+ 5.11e-07 1.2 5.2e-07 1.2 5.21e-07 0 5.3e-07 0
+ 5.31e-07 1.2 5.4e-07 1.2 5.41e-07 0 5.9e-07 0
+ 5.91e-07 1.2 6e-07 1.2 6.01e-07 0 6.1e-07 0
+ 6.11e-07 1.2 6.4e-07 1.2 6.41e-07 0 6.7e-07 0
+ 6.71e-07 1.2 7.1e-07 1.2 7.11e-07 0 7.2e-07 0
+ 7.21e-07 1.2 7.4e-07 1.2 7.41e-07 0 7.5e-07 0
+ 7.51e-07 1.2 7.6e-07 1.2 7.61e-07 0 7.8e-07 0
+ 7.81e-07 1.2 7.9e-07 1.2 7.91e-07 0 8.1e-07 0
+ 8.11e-07 1.2 8.2e-07 1.2 8.21e-07 0 8.3e-07 0
+ 8.31e-07 1.2 8.4e-07 1.2 8.41e-07 0 8.5e-07 0
+ 8.51e-07 1.2 8.6e-07 1.2 8.61e-07 0 8.7e-07 0
+ 8.71e-07 1.2 8.9e-07 1.2 8.91e-07 0 9.3e-07 0
+ 9.31e-07 1.2 9.4e-07 1.2 9.41e-07 0 9.5e-07 0
+ 9.51e-07 1.2 9.6e-07 1.2 9.61e-07 0 9.7e-07 0
+ 9.71e-07 1.2 1e-06 1.2 )
Vb1 4 0 pwl (0 1.2 1e-08 1.2 1.1e-08 0 3e-08 0
+ 3.1e-08 1.2 5e-08 1.2 5.1e-08 0 6e-08 0
+ 6.1e-08 1.2 7e-08 1.2 7.1e-08 0 1e-07 0
+ 1.01e-07 1.2 1.1e-07 1.2 1.11e-07 0 1.3e-07 0
+ 1.31e-07 1.2 1.6e-07 1.2 1.61e-07 0 1.7e-07 0
+ 1.71e-07 1.2 1.9e-07 1.2 1.91e-07 0 2e-07 0
+ 2.01e-07 1.2 2.2e-07 1.2 2.21e-07 0 2.4e-07 0
+ 2.41e-07 1.2 2.5e-07 1.2 2.51e-07 0 3e-07 0
+ 3.01e-07 1.2 3.1e-07 1.2 3.11e-07 0 3.3e-07 0
+ 3.31e-07 1.2 3.6e-07 1.2 3.61e-07 0 3.8e-07 0
+ 3.81e-07 1.2 3.9e-07 1.2 3.91e-07 0 4e-07 0
+ 4.01e-07 1.2 4.2e-07 1.2 4.21e-07 0 4.4e-07 0
+ 4.41e-07 1.2 4.6e-07 1.2 4.61e-07 0 5.1e-07 0
+ 5.11e-07 1.2 5.3e-07 1.2 5.31e-07 0 5.4e-07 0
+ 5.41e-07 1.2 5.6e-07 1.2 5.61e-07 0 5.8e-07 0
+ 5.81e-07 1.2 6.4e-07 1.2 6.41e-07 0 6.5e-07 0
+ 6.51e-07 1.2 6.6e-07 1.2 6.61e-07 0 6.7e-07 0
+ 6.71e-07 1.2 6.8e-07 1.2 6.81e-07 0 6.9e-07 0
+ 6.91e-07 1.2 7.1e-07 1.2 7.11e-07 0 7.4e-07 0
+ 7.41e-07 1.2 7.5e-07 1.2 7.51e-07 0 7.6e-07 0
+ 7.61e-07 1.2 7.7e-07 1.2 7.71e-07 0 7.9e-07 0
+ 7.91e-07 1.2 8e-07 1.2 8.01e-07 0 8.2e-07 0
+ 8.21e-07 1.2 8.3e-07 1.2 8.31e-07 0 8.4e-07 0
+ 8.41e-07 1.2 8.6e-07 1.2 8.61e-07 0 8.7e-07 0
+ 8.71e-07 1.2 8.8e-07 1.2 8.81e-07 0 9.2e-07 0
+ 9.21e-07 1.2 9.3e-07 1.2 9.31e-07 0 9.4e-07 0
+ 9.41e-07 1.2 9.5e-07 1.2 9.51e-07 0 9.7e-07 0
+ 9.71e-07 1.2 9.9e-07 1.2 9.91e-07 0 1e-06 0
+ 1.001e-06 1.2 1.01e-06 1.2 )
Vb2 38 0 pwl (0 0 1e-08 0 1.1e-08 1.2 2e-08 1.2
+ 2.1e-08 0 4e-08 0 4.1e-08 1.2 6e-08 1.2
+ 6.1e-08 0 1.1e-07 0 1.11e-07 1.2 1.4e-07 1.2
+ 1.41e-07 0 1.5e-07 0 1.51e-07 1.2 1.6e-07 1.2
+ 1.61e-07 0 1.7e-07 0 1.71e-07 1.2 2.2e-07 1.2
+ 2.21e-07 0 2.3e-07 0 2.31e-07 1.2 2.5e-07 1.2
+ 2.51e-07 0 2.8e-07 0 2.81e-07 1.2 2.9e-07 1.2
+ 2.91e-07 0 3.5e-07 0 3.51e-07 1.2 3.6e-07 1.2
+ 3.61e-07 0 3.8e-07 0 3.81e-07 1.2 3.9e-07 1.2
+ 3.91e-07 0 4e-07 0 4.01e-07 1.2 4.2e-07 1.2
+ 4.21e-07 0 4.5e-07 0 4.51e-07 1.2 4.9e-07 1.2