*admsbsim3v3_models.scs
simulator lang=spectre
ahdl_include "admsbsim3v32.va" 
model nenh admsbsim3v32
+ TYPE=1
+ TOX=5.7000E-09 TOXM=5.7000E-09 NRS=1.0 NRD=1.0 RSH=8.0000E+00
+ XJ=1.0000E-07 NSUB=2.8559E+17 NCH=4.8940E+17 VBM=-6.7645E+00 NGATE=0.0000E+00
+ XT=1.5500E-07 VBX=-3.2772E+00 VTH0=4.3690E-01 
*+ K1=5.6570E-01 K2=-6.1118E-03
+ NLX=4.8363E-07
+ GAMMA1=4.4857E-01 GAMMA2=5.0824E-01 DVT0=7.5040E+00 DVT1=4.1423E-01
+ DVT2=0.0000E+00
+ DVT0W=-3.1540E-01 DVT1W=7.3254E+04 DVT2W=-2.0000E-01 K3=-1.0480E+02
+ K3B=0.0000E+00
+ W0=7.5290E-06 U0=4.2300E+02 LINT=2.1200E-08 WINT=1.7590E-07 DWC=1.759E-07 UA=1.1000E-10
+ UB=2.1280E-18
+ UC=1.1514E-10 PCLM=1.0000E-01 VSAT=1.1572E+05 PVAG=4.8992E-01
+ PDIBLC1=2.0160E-02
+ PDIBLC2=6.3749E-05 PDIBLCB=1.0000E-01 DROUT=3.0358E-02 PSCBE1=3.1495E-17
+ PSCBE2=6.2330E-10
+ DELTA=1.0000E-02 MOBMOD=1 VOFF=-1.3010E-01 CIT=0.0000E+00
+ NFACTOR=5.9340E-01 CDSC=2.9870E-03
+ CDSCB=1.0130E-03 CDSCD=0.0000E+00 ETA0=6.0880E-01 ETAB=-1.0000E-01
+ DSUB=9.7023E-01
+ RDSW=4.3160E+02 WR=1.0000E+00 PRT=-3.0000E+02 PRWB=1.0750E-01
+ PRWG=-2.3660E-02
+ A0=1.1892E+00 A1=6.4447E-01 A2=6.3142E-01 KETA=0.0000E+00 AGS=2.6949E-01
+ B0=-7.2197E-07
+ B1=7.0682E-06 TNOM=2.7000E+01 AT=-5.6700E+03 UTE=-1.5626E+00
+ UA1=1.8072E-09 UB1=-3.1432E-18
+ UC1=-4.3116E-11 KT1=-2.8600E-01 KT1L=4.6097E-09 KT2=-3.5759E-02
+ DWG=-8.7729E-09
+ DWB=9.9270E-09 WL=-5.8000E-15 WLC=-5.8000E-15 WLN=1.0000E+00 WW=0.0000E+00
+ WWC=0.0000E+00
+ WWN=1.0000E+00 WWL=0.0000E+00 WWLC=0.0000E+00
+ LL=0.0000E+00 LLC=0.0000E+00 LLN=1.0000E+00 LW=0.0000E+00 LWC=0.0 LWN=1.0000E+00 LWL=0.0000E+00 LWLC=0.0000E+00
+ LMIN=0.0000E+00
+ LMAX=1.0000E+00 WMIN=0.0000E+00 WMAX=1.0000E+00 BINUNIT=1.0000E+00
+ VERSION=3.1100
+ JS=2.0513E-07 JSW=0.0000E+00 NJ=1.0000E+00 XTI=3.0000E+00 CJ=9.2121E-04
+ MJ=3.5968E-01
+ PB=7.5300E-01 CJSW=2.1665E-10 MJSW=2.5171E-01 PBSW=6.0400E-01 
+ CJSWG=2.5248E-10
+ MJSWG=4.9469E-01 PBSWG=9.3200E-01 CAPMOD=2 CGSL=0.0000E+00 CGDL=0.0000E+00
+ CKAPPA=6.0000E-01
+ CLC=1.0000E-07 CLE=6.0000E-01 CGDO=1.9253E-10 CGSO=1.9253E-10 CGBO=0.0000E+00
+ CF=0.0000E+00 XPART=0.0000E+00 
+ VFB=-1 IJTH=1 
+ DLC=21.2N


model penh admsbsim3v32
+ TYPE=-1
+ TOX=5.7000E-09 TOXM=5.7000E-09
+ NRS=1.0 NRD=1.0 RSH=6.2000E+00 
+ XJ=1.2000E-07 NSUB=4.2122E+17 NCH=3.4106E+17 VBM=-3.0000E+00 NGATE=0.0000E+00
+ XT=1.5500E-07 VBX=-7.3016E+00 VTH0=-6.0930E-01 
*+ K1=8.2310E-01 K2=-6.9497E-02
+ NLX=1.3950E-07
+ GAMMA1=6.3156E-01 GAMMA2=6.2021E-01 DVT0=3.7711E+00 DVT1=5.3110E-01
+ DVT2=0.0000E+00
+ DVT0W=-4.0334E-01 DVT1W=1.9058E+05 DVT2W=0.0000E+00 K3=-1.2210E+01
+ K3B=-1.0180E+00
+ W0=1.6676E-07 U0=1.0500E+02 LINT=1.2050E-08 WINT=1.4240E-07 DWC=1.4240E-07 UA=0.0000E+00
+ UB=7.8750E-19
+ UC=-3.0000E-11 PCLM=3.8693E+00 VSAT=1.7620E+05 PVAG=-5.0000E-01
+ PDIBLC1=2.0190E-03
+ PDIBLC2=2.2510E-05 PDIBLCB=1.0000E-01 DROUT=1.9320E+00 PSCBE1=4.2400E+08
+ PSCBE2=1.0000E-08
+ DELTA=1.0000E-02 MOBMOD=1 VOFF=-2.0000E-01 CIT=1.2190E-03
+ NFACTOR=5.1760E-01 CDSC=1.5390E-02
+ CDSCB=6.3680E-03 CDSCD=0.0000E+00 ETA0=7.0000E-01 ETAB=-4.6900E-03
+ DSUB=8.3302E-01
+ RDSW=7.3110E+02 WR=1.0000E+00 PRT=-8.0000E+02 PRWB=3.0000E-01 PRWG=7.5000E-02
+ A0=1.6630E+00 A1=1.0301E-01 A2=1.6142E-02 KETA=0.0000E+00 AGS=3.0626E-01
+ B0=2.1677E-07
+ B1=2.1924E-08 TNOM=2.7000E+01 AT=5.0600E+04 UTE=-6.0780E-01 UA1=1.9510E-09
+ UB1=-1.3200E-18
+ UC1=-8.6700E-12 KT1=-5.0560E-01 KT1L=-3.0300E-10 KT2=-6.1740E-02
+ DWG=-1.0580E-08
+ DWB=0.0000E+00 WL=1.2500E-15 WLC=1.2500E-15 WLN=1.0000E+00 WW=0.0000E+00 WWC=0.0000E+00 WWN=1.0000E+00
+ WWL=0.0000E+00 WWLC=0.0000E+00
+ LL=0.0000E+00 LLC=0.0000E+00 LLN=1.0000E+00 LW=0.0000E+00 LWC=0.0000E+00 LWN=1.0000E+00 LWL=0.0000E+00 LWLC=0.0000E+00
+ LMIN=0.0000E+00
+ LMAX=1.0000E+00 WMIN=0.0000E+00 WMAX=1.0000E+00 BINUNIT=1.0000E+00
+ VERSION=3.1100
+ JS=2.0513E-05 JSW=0.0000E+00 NJ=1.0000E+00 XTI=3.0000E+00 CJ=1.1230E-03
+ MJ=4.7456E-01
+ PB=8.7500E-01 CJSW=1.9937E-10 MJSW=2.2277E-01 PBSW=4.9500E-01
+ CJSWG=2.3149E-10
+ MJSWG=3.4917E-01 PBSWG=5.9700E-01 CAPMOD=2 CGSL=0.0000E+00 CGDL=0.0000E+00
+ CKAPPA=6.0000E-01
+ CLC=1.0000E-07 CLE=6.0000E-01 CGDO=1.7551E-10 CGSO=1.7551E-10 CGBO=0.0000E+00
+ CF=0.0000E+00 XPART=0.0000E+00 
+ VFB=-1 IJTH=1 
+ DLC=21.2N 
